@<TRIPOS>MOLECULE
CHEMBL99718
   59    62     0     0     0
SMALL
USER_CHARGES

@<TRIPOS>ATOM
      1 C1         -0.0162    1.4453   -0.0783 C.ar      1 <0>        -0.0942
      2 C2          1.1692    2.1534   -0.0774 C.ar      1 <0>        -0.1092
      3 C3          2.3808    1.4781   -0.1049 C.ar      1 <0>         0.1043
      4 C4          2.4019    0.0912   -0.1338 C.ar      1 <0>        -0.1727
      5 C5          1.2169   -0.6176   -0.1351 C.ar      1 <0>        -0.0937
      6 C6          0.0045    0.0577   -0.1067 C.ar      1 <0>         0.1224
      7 N1         -1.2003   -0.6625   -0.1071 N.pl3     1 <0>        -0.4175
      8 C7         -1.3341   -2.0265   -0.1277 C.2       1 <0>        -0.0588
      9 C8         -2.6550   -2.2890   -0.1198 C.2       1 <0>        -0.0118
     10 N2         -3.3138   -1.1211   -0.0950 N.2       1 <0>        -0.4776
     11 C9         -2.4533   -0.1396   -0.0813 C.2       1 <0>         0.1904
     12 O1          3.5477    2.1756   -0.1040 O.3       1 <0>        -0.3260
     13 C10         4.7577    1.4159   -0.1333 C.3       1 <0>         0.0233
     14 C11         5.9568    2.3662   -0.1276 C.3       1 <0>         0.0011
     15 N3          5.9913    3.1034    1.1425 N.4       1 <0>        -0.5054
     16 C12         7.1426    4.0158    1.1479 C.3       1 <0>        -0.0409
     17 C13         7.1787    4.7837    2.4708 C.3       1 <0>         0.0865
     18 C14         8.3019    5.8216    2.4276 C.3       1 <0>         0.0326
     19 O2          8.2619    6.6164    3.6145 O.3       1 <0>        -0.2433
     20 N4          9.2992    7.6463    3.6762 N.3       1 <0>        -0.4862
     21 C15         9.1975    8.4220    4.9196 C.3       1 <0>         0.1434
     22 C16        10.5989    8.8135    5.3925 C.3       1 <0>        -0.1724
     23 C17        11.1591    8.0889    6.6180 C.3       1 <0>        -0.1802
     24 C18        10.7137    9.5484    6.7295 C.3       1 <0>        -0.1566
     25 C19         8.3731    9.6858    4.6663 C.3       1 <0>        -0.1362
     26 C20         7.2071    9.9706    5.6150 C.3       1 <0>        -0.1783
     27 C21         6.9325    9.5046    4.1838 C.3       1 <0>        -0.1629
     28 O3          7.4144    3.8711    3.5450 O.3       1 <0>        -0.5462
     29 H1         -0.9593    1.9710   -0.0523 H         1 <0>         0.1465
     30 H2          1.1532    3.2331   -0.0557 H         1 <0>         0.1458
     31 H3          3.3453   -0.4340   -0.1555 H         1 <0>         0.1380
     32 H4          1.2335   -1.6972   -0.1583 H         1 <0>         0.1402
     33 H5         -0.5339   -2.7515   -0.1472 H         1 <0>         0.1795
     34 H6         -3.1058   -3.2704   -0.1317 H         1 <0>         0.1790
     35 H7         -2.6971    0.9123   -0.0563 H         1 <0>         0.2109
     36 H8          4.8021    0.7696    0.7433 H         1 <0>         0.0895
     37 H9          4.7818    0.8058   -1.0361 H         1 <0>         0.1129
     38 H10         6.8762    1.7916   -0.2394 H         1 <0>         0.1531
     39 H11         5.8659    3.0708   -0.9543 H         1 <0>         0.1458
     40 H12         5.1402    3.6353    1.2459 H         1 <0>         0.4371
     41 H13         8.0621    3.4412    1.0362 H         1 <0>         0.1400
     42 H14         7.0518    4.7204    0.3212 H         1 <0>         0.1484
     43 H15         6.2243    5.2873    2.6247 H         1 <0>         0.1329
     44 H16         9.2640    5.3134    2.3629 H         1 <0>         0.0614
     45 H17         8.1705    6.4631    1.5562 H         1 <0>         0.0778
     46 H18        10.2178    7.2407    3.5772 H         1 <0>         0.3389
     47 H19         8.7110    7.8183    5.6857 H         1 <0>         0.0730
     48 H20        11.3011    9.0883    4.6053 H         1 <0>         0.1144
     49 H21        10.5292    7.3332    7.0874 H         1 <0>         0.0939
     50 H22        12.2300    7.8866    6.6373 H         1 <0>         0.0997
     51 H23        11.4916   10.3063    6.8221 H         1 <0>         0.1019
     52 H24         9.7909    9.7529    7.2723 H         1 <0>         0.1002
     53 H25         8.9292   10.5404    4.2810 H         1 <0>         0.1088
     54 H26         7.0273    9.2577    6.4197 H         1 <0>         0.0913
     55 H27         6.9960   11.0129    5.8542 H         1 <0>         0.0983
     56 H28         6.5407   10.2403    3.4814 H         1 <0>         0.0921
     57 H29         6.5721    8.4851    4.0469 H         1 <0>         0.0939
     58 H30         8.2481    3.3865    3.4735 H         1 <0>         0.3884
     59 H31         6.0755    2.4512    1.9078 H         1 <0>         0.4327
@<TRIPOS>BOND
     1    1    6 ar
     2    1    2 ar
     3    1   29 1
     4    2    3 ar
     5    2   30 1
     6    3    4 ar
     7    3   12 1
     8    4    5 ar
     9    4   31 1
    10    5    6 ar
    11    5   32 1
    12    6    7 1
    13    7   11 1
    14    7    8 1
    15    8    9 2
    16    8   33 1
    17    9   10 1
    18    9   34 1
    19   10   11 2
    20   11   35 1
    21   12   13 1
    22   13   14 1
    23   13   36 1
    24   13   37 1
    25   14   15 1
    26   14   38 1
    27   14   39 1
    28   15   16 1
    29   15   40 1
    30   15   59 1
    31   16   17 1
    32   16   41 1
    33   16   42 1
    34   17   18 1
    35   17   28 1
    36   17   43 1
    37   18   19 1
    38   18   44 1
    39   18   45 1
    40   19   20 1
    41   20   21 1
    42   20   46 1
    43   21   22 1
    44   21   25 1
    45   21   47 1
    46   22   24 1
    47   22   23 1
    48   22   48 1
    49   23   24 1
    50   23   49 1
    51   23   50 1
    52   24   51 1
    53   24   52 1
    54   25   27 1
    55   25   26 1
    56   25   53 1
    57   26   27 1
    58   26   54 1
    59   26   55 1
    60   27   56 1
    61   27   57 1
    62   28   58 1
@<TRIPOS>MOLECULE
CHEMBL99718
   58    61     0     0     0
SMALL
USER_CHARGES

@<TRIPOS>ATOM
      1 C1         -0.0150    1.4445   -0.0766 C.ar      1 <0>        -0.0909
      2 C2          1.1702    2.1530   -0.0759 C.ar      1 <0>        -0.1236
      3 C3          2.3820    1.4781   -0.1035 C.ar      1 <0>         0.1317
      4 C4          2.4035    0.0912   -0.1323 C.ar      1 <0>        -0.1814
      5 C5          1.2188   -0.6180   -0.1335 C.ar      1 <0>        -0.0888
      6 C6          0.0061    0.0569   -0.1049 C.ar      1 <0>         0.0931
      7 N1         -1.1985   -0.6637   -0.1051 N.pl3     1 <0>        -0.4070
      8 C7         -1.3319   -2.0278   -0.1256 C.2       1 <0>        -0.0566
      9 C8         -2.6527   -2.2907   -0.1175 C.2       1 <0>        -0.0212
     10 N2         -3.3118   -1.1230   -0.0927 N.2       1 <0>        -0.4851
     11 C9         -2.4516   -0.1412   -0.0791 C.2       1 <0>         0.1861
     12 O1          3.5486    2.1759   -0.1029 O.3       1 <0>        -0.3128
     13 C10         4.7588    1.4166   -0.1322 C.3       1 <0>         0.0574
     14 C11         5.9576    2.3672   -0.1268 C.3       1 <0>         0.0617
     15 N3          5.9922    3.1046    1.1433 N.3       1 <0>        -0.6792
     16 C12         7.1329    4.0292    1.1844 C.3       1 <0>         0.0308
     17 C13         7.1353    4.7772    2.5191 C.3       1 <0>         0.1166
     18 C14         8.2474    5.8279    2.5129 C.3       1 <0>         0.0304
     19 O2          8.1761    6.6041    3.7107 O.3       1 <0>        -0.2388
     20 N4          9.2005    7.6441    3.8076 N.3       1 <0>        -0.4987
     21 C15         9.0666    8.3997    5.0603 C.3       1 <0>         0.1429
     22 C16        10.4543    8.7992    5.5657 C.3       1 <0>        -0.1673
     23 C17        10.9992    8.0621    6.7907 C.3       1 <0>        -0.1808
     24 C18        10.5356    9.5148    6.9156 C.3       1 <0>        -0.1598
     25 C19         8.2331    9.6581    4.8102 C.3       1 <0>        -0.1340
     26 C20         7.0462    9.9158    5.7407 C.3       1 <0>        -0.1810
     27 C21         6.8040    9.4686    4.2977 C.3       1 <0>        -0.1622
     28 O3          7.3608    3.8511    3.5838 O.3       1 <0>        -0.5410
     29 H1         -0.9583    1.9699   -0.0505 H         1 <0>         0.1399
     30 H2          1.1538    3.2326   -0.0542 H         1 <0>         0.1430
     31 H3          3.3471   -0.4338   -0.1542 H         1 <0>         0.1388
     32 H4          1.2356   -1.6976   -0.1566 H         1 <0>         0.1343
     33 H5         -0.5314   -2.7525   -0.1452 H         1 <0>         0.1770
     34 H6         -3.1032   -3.2722   -0.1293 H         1 <0>         0.1751
     35 H7         -2.6957    0.9106   -0.0542 H         1 <0>         0.2085
     36 H8          4.8036    0.7704    0.7444 H         1 <0>         0.0767
     37 H9          4.7831    0.8064   -1.0351 H         1 <0>         0.0705
     38 H10         6.8773    1.7929   -0.2386 H         1 <0>         0.0946
     39 H11         5.8664    3.0717   -0.9535 H         1 <0>         0.0437
     40 H12         5.1241    3.5940    1.3010 H         1 <0>         0.3521
     41 H13         8.0607    3.4664    1.0817 H         1 <0>         0.0793
     42 H14         7.0498    4.7452    0.3668 H         1 <0>         0.0445
     43 H15         6.1726    5.2680    2.6623 H         1 <0>         0.1058
     44 H16         9.2162    5.3312    2.4590 H         1 <0>         0.0508
     45 H17         8.1254    6.4811    1.6489 H         1 <0>         0.0659
     46 H18        10.1252    7.2501    3.7201 H         1 <0>         0.3349
     47 H19         8.5724    7.7792    5.8078 H         1 <0>         0.0708
     48 H20        11.1681    9.0935    4.7963 H         1 <0>         0.1125
     49 H21        10.3691    7.2926    7.2366 H         1 <0>         0.0947
     50 H22        12.0718    7.8713    6.8274 H         1 <0>         0.0975
     51 H23        11.3030   10.2797    7.0344 H         1 <0>         0.0985
     52 H24         9.6003    9.7010    7.4436 H         1 <0>         0.0989
     53 H25         8.7868   10.5245    4.4485 H         1 <0>         0.1055
     54 H26         6.8591    9.1888    6.5310 H         1 <0>         0.0905
     55 H27         6.8189   10.9519    5.9914 H         1 <0>         0.0945
     56 H28         6.4174   10.2106    3.5991 H         1 <0>         0.0904
     57 H29         6.4576    8.4475    4.1386 H         1 <0>         0.0988
     58 H30         8.2011    3.3767    3.5210 H         1 <0>         0.3715
@<TRIPOS>BOND
     1    1    6 ar
     2    1    2 ar
     3    1   29 1
     4    2    3 ar
     5    2   30 1
     6    3    4 ar
     7    3   12 1
     8    4    5 ar
     9    4   31 1
    10    5    6 ar
    11    5   32 1
    12    6    7 1
    13    7   11 1
    14    7    8 1
    15    8    9 2
    16    8   33 1
    17    9   10 1
    18    9   34 1
    19   10   11 2
    20   11   35 1
    21   12   13 1
    22   13   14 1
    23   13   36 1
    24   13   37 1
    25   14   15 1
    26   14   38 1
    27   14   39 1
    28   15   16 1
    29   15   40 1
    30   16   17 1
    31   16   41 1
    32   16   42 1
    33   17   18 1
    34   17   28 1
    35   17   43 1
    36   18   19 1
    37   18   44 1
    38   18   45 1
    39   19   20 1
    40   20   21 1
    41   20   46 1
    42   21   22 1
    43   21   25 1
    44   21   47 1
    45   22   24 1
    46   22   23 1
    47   22   48 1
    48   23   24 1
    49   23   49 1
    50   23   50 1
    51   24   51 1
    52   24   52 1
    53   25   27 1
    54   25   26 1
    55   25   53 1
    56   26   27 1
    57   26   54 1
    58   26   55 1
    59   27   56 1
    60   27   57 1
    61   28   58 1
@<TRIPOS>MOLECULE
CHEMBL99718
   59    62     0     0     0
SMALL
USER_CHARGES

@<TRIPOS>ATOM
      1 C1         -0.0167    1.3839    0.0097 C.ar      1 <0>        -0.0943
      2 C2          1.1696    2.0903    0.0021 C.ar      1 <0>        -0.1090
      3 C3          2.3803    1.4130   -0.0131 C.ar      1 <0>         0.1045
      4 C4          2.3996    0.0259   -0.0212 C.ar      1 <0>        -0.1728
      5 C5          1.2137   -0.6813   -0.0141 C.ar      1 <0>        -0.0937
      6 C6          0.0021   -0.0041    0.0020 C.ar      1 <0>         0.1225
      7 N1         -1.2037   -0.7225    0.0101 N.pl3     1 <0>        -0.4175
      8 C7         -1.3394   -2.0865    0.0097 C.2       1 <0>        -0.0587
      9 C8         -2.6606   -2.3471    0.0191 C.2       1 <0>        -0.0118
     10 N2         -3.3178   -1.1780    0.0252 N.2       1 <0>        -0.4776
     11 C9         -2.4560   -0.1976    0.0259 C.2       1 <0>         0.1904
     12 O1          3.5482    2.1089   -0.0205 O.3       1 <0>        -0.3258
     13 C10         4.7572    1.3472   -0.0361 C.3       1 <0>         0.0231
     14 C11         5.9576    2.2958   -0.0425 C.3       1 <0>         0.0010
     15 N3          5.9909    3.0519    1.2165 N.4       1 <0>        -0.5050
     16 C12         7.1434    3.9627    1.2104 C.3       1 <0>        -0.0415
     17 C13         7.1781    4.7502    2.5218 C.3       1 <0>         0.0869
     18 C14         8.3785    5.6988    2.5154 C.3       1 <0>         0.0321
     19 O2          8.4786    6.3489    3.7840 O.3       1 <0>        -0.2418
     20 N4          9.5994    7.2835    3.8869 N.3       1 <0>        -0.4858
     21 C15         9.6402    7.9127    5.2137 C.3       1 <0>         0.1434
     22 C16        11.0887    8.2475    5.5751 C.3       1 <0>        -0.1476
     23 C17        12.1463    8.0796    4.4824 C.3       1 <0>        -0.1695
     24 C18        12.0850    7.0886    5.6465 C.3       1 <0>        -0.1667
     25 C19         8.8092    9.1973    5.1948 C.3       1 <0>        -0.1932
     26 C20         7.7543    9.3725    6.2890 C.3       1 <0>        -0.1654
     27 C21         7.3234    9.0725    4.8519 C.3       1 <0>        -0.1770
     28 O3          5.9734    5.5072    2.6548 O.3       1 <0>        -0.5455
     29 H1         -0.9592    1.9111    0.0260 H         1 <0>         0.1464
     30 H2          1.1551    3.1702    0.0077 H         1 <0>         0.1456
     31 H3          3.3423   -0.5010   -0.0334 H         1 <0>         0.1381
     32 H4          1.2287   -1.7612   -0.0211 H         1 <0>         0.1402
     33 H5         -0.5401   -2.8128    0.0025 H         1 <0>         0.1795
     34 H6         -3.1128   -3.3279    0.0211 H         1 <0>         0.1791
     35 H7         -2.6984    0.8548    0.0347 H         1 <0>         0.2109
     36 H8          4.7991    0.7140    0.8501 H         1 <0>         0.0897
     37 H9          4.7821    0.7236   -0.9298 H         1 <0>         0.1130
     38 H10         6.8765    1.7184   -0.1439 H         1 <0>         0.1541
     39 H11         5.8692    2.9881   -0.8798 H         1 <0>         0.1446
     40 H12         5.1403    3.5865    1.3105 H         1 <0>         0.4395
     41 H13         8.0623    3.3853    1.1090 H         1 <0>         0.1480
     42 H14         7.0550    4.6550    0.3731 H         1 <0>         0.1398
     43 H15         7.2665    4.0579    3.3591 H         1 <0>         0.1331
     44 H16         9.2893    5.1310    2.3252 H         1 <0>         0.0764
     45 H17         8.2465    6.4466    1.7334 H         1 <0>         0.0616
     46 H18         9.5578    7.9797    3.1577 H         1 <0>         0.3407
     47 H19         9.2304    7.2258    5.9543 H         1 <0>         0.0970
     48 H20        11.2195    9.0679    6.2808 H         1 <0>         0.1174
     49 H21        11.8102    7.7305    3.5061 H         1 <0>         0.1012
     50 H22        12.9732    8.7896    4.4690 H         1 <0>         0.0926
     51 H23        12.8715    7.1467    6.3989 H         1 <0>         0.0948
     52 H24        11.7085    6.0876    5.4360 H         1 <0>         0.0960
     53 H25         9.3317   10.0901    4.8514 H         1 <0>         0.1102
     54 H26         7.6523    8.5726    7.0224 H         1 <0>         0.0967
     55 H27         7.5827   10.3808    6.6658 H         1 <0>         0.0983
     56 H28         6.8682    9.8834    4.2833 H         1 <0>         0.0935
     57 H29         6.9378    8.0753    4.6399 H         1 <0>         0.0996
     58 H30         5.8292    6.1452    1.9425 H         1 <0>         0.3886
     59 H31         6.0727    2.4111    1.9916 H         1 <0>         0.4302
@<TRIPOS>BOND
     1    1    6 ar
     2    1    2 ar
     3    1   29 1
     4    2    3 ar
     5    2   30 1
     6    3    4 ar
     7    3   12 1
     8    4    5 ar
     9    4   31 1
    10    5    6 ar
    11    5   32 1
    12    6    7 1
    13    7   11 1
    14    7    8 1
    15    8    9 2
    16    8   33 1
    17    9   10 1
    18    9   34 1
    19   10   11 2
    20   11   35 1
    21   12   13 1
    22   13   14 1
    23   13   36 1
    24   13   37 1
    25   14   15 1
    26   14   38 1
    27   14   39 1
    28   15   16 1
    29   15   40 1
    30   15   59 1
    31   16   17 1
    32   16   41 1
    33   16   42 1
    34   17   18 1
    35   17   28 1
    36   17   43 1
    37   18   19 1
    38   18   44 1
    39   18   45 1
    40   19   20 1
    41   20   21 1
    42   20   46 1
    43   21   22 1
    44   21   25 1
    45   21   47 1
    46   22   24 1
    47   22   23 1
    48   22   48 1
    49   23   24 1
    50   23   49 1
    51   23   50 1
    52   24   51 1
    53   24   52 1
    54   25   27 1
    55   25   26 1
    56   25   53 1
    57   26   27 1
    58   26   54 1
    59   26   55 1
    60   27   56 1
    61   27   57 1
    62   28   58 1
@<TRIPOS>MOLECULE
CHEMBL99718
   58    61     0     0     0
SMALL
USER_CHARGES

@<TRIPOS>ATOM
      1 C1         -0.0167    1.3839    0.0097 C.ar      1 <0>        -0.0910
      2 C2          1.1696    2.0903    0.0021 C.ar      1 <0>        -0.1232
      3 C3          2.3803    1.4130   -0.0131 C.ar      1 <0>         0.1317
      4 C4          2.3996    0.0259   -0.0212 C.ar      1 <0>        -0.1816
      5 C5          1.2137   -0.6813   -0.0141 C.ar      1 <0>        -0.0889
      6 C6          0.0021   -0.0041    0.0020 C.ar      1 <0>         0.0932
      7 N1         -1.2037   -0.7225    0.0101 N.pl3     1 <0>        -0.4070
      8 C7         -1.3394   -2.0865    0.0097 C.2       1 <0>        -0.0566
      9 C8         -2.6606   -2.3471    0.0191 C.2       1 <0>        -0.0213
     10 N2         -3.3178   -1.1780    0.0252 N.2       1 <0>        -0.4851
     11 C9         -2.4560   -0.1976    0.0259 C.2       1 <0>         0.1861
     12 O1          3.5482    2.1089   -0.0205 O.3       1 <0>        -0.3124
     13 C10         4.7572    1.3472   -0.0361 C.3       1 <0>         0.0570
     14 C11         5.9576    2.2958   -0.0425 C.3       1 <0>         0.0617
     15 N3          5.9909    3.0519    1.2165 N.3       1 <0>        -0.6834
     16 C12         7.1331    3.9752    1.2461 C.3       1 <0>         0.0316
     17 C13         7.1341    4.7430    2.5695 C.3       1 <0>         0.1144
     18 C14         8.3237    5.7046    2.6003 C.3       1 <0>         0.0309
     19 O2          8.3925    6.3364    3.8802 O.3       1 <0>        -0.2372
     20 N4          9.5007    7.2815    4.0185 N.3       1 <0>        -0.4979
     21 C15         9.5092    7.8908    5.3552 C.3       1 <0>         0.1427
     22 C16        10.9468    8.2359    5.7492 C.3       1 <0>        -0.1454
     23 C17        12.0268    8.0960    4.6745 C.3       1 <0>        -0.1705
     24 C18        11.9545    7.0869    5.8222 C.3       1 <0>        -0.1680
     25 C19         8.6645    9.1664    5.3396 C.3       1 <0>        -0.1906
     26 C20         7.5872    9.3134    6.4160 C.3       1 <0>        -0.1685
     27 C21         7.1869    9.0307    4.9666 C.3       1 <0>        -0.1758
     28 O3          5.9187    5.4848    2.6908 O.3       1 <0>        -0.5493
     29 H1         -0.9592    1.9111    0.0260 H         1 <0>         0.1398
     30 H2          1.1551    3.1702    0.0077 H         1 <0>         0.1430
     31 H3          3.3423   -0.5010   -0.0334 H         1 <0>         0.1388
     32 H4          1.2287   -1.7612   -0.0211 H         1 <0>         0.1343
     33 H5         -0.5401   -2.8128    0.0025 H         1 <0>         0.1771
     34 H6         -3.1128   -3.3279    0.0211 H         1 <0>         0.1751
     35 H7         -2.6984    0.8548    0.0347 H         1 <0>         0.2084
     36 H8          4.7991    0.7140    0.8501 H         1 <0>         0.0765
     37 H9          4.7821    0.7236   -0.9298 H         1 <0>         0.0708
     38 H10         6.8765    1.7184   -0.1439 H         1 <0>         0.0952
     39 H11         5.8692    2.9881   -0.8798 H         1 <0>         0.0431
     40 H12         5.1233    3.5452    1.3652 H         1 <0>         0.3577
     41 H13         8.0601    3.4094    1.1536 H         1 <0>         0.0860
     42 H14         7.0528    4.6791    0.4178 H         1 <0>         0.0362
     43 H15         7.2143    4.0391    3.3979 H         1 <0>         0.1162
     44 H16         9.2442    5.1497    2.4191 H         1 <0>         0.0666
     45 H17         8.1983    6.4627    1.8272 H         1 <0>         0.0492
     46 H18         9.4651    7.9882    3.2992 H         1 <0>         0.3363
     47 H19         9.0932    7.1883    6.0774 H         1 <0>         0.0955
     48 H20        11.0551    9.0468    6.4695 H         1 <0>         0.1133
     49 H21        11.7131    7.7582    3.6868 H         1 <0>         0.1032
     50 H22        12.8458    8.8152    4.6875 H         1 <0>         0.0890
     51 H23        12.7259    7.1421    6.5903 H         1 <0>         0.0916
     52 H24        11.5932    6.0851    5.5895 H         1 <0>         0.0980
     53 H25         9.1834   10.0700    5.0197 H         1 <0>         0.1067
     54 H26         7.4802    8.5014    7.1352 H         1 <0>         0.0958
     55 H27         7.3972   10.3140    6.8045 H         1 <0>         0.0945
     56 H28         6.7336    9.8452    4.4016 H         1 <0>         0.0917
     57 H29         6.8166    8.0326    4.7323 H         1 <0>         0.1048
     58 H30         5.7809    6.1319    1.9856 H         1 <0>         0.3702
@<TRIPOS>BOND
     1    1    6 ar
     2    1    2 ar
     3    1   29 1
     4    2    3 ar
     5    2   30 1
     6    3    4 ar
     7    3   12 1
     8    4    5 ar
     9    4   31 1
    10    5    6 ar
    11    5   32 1
    12    6    7 1
    13    7   11 1
    14    7    8 1
    15    8    9 2
    16    8   33 1
    17    9   10 1
    18    9   34 1
    19   10   11 2
    20   11   35 1
    21   12   13 1
    22   13   14 1
    23   13   36 1
    24   13   37 1
    25   14   15 1
    26   14   38 1
    27   14   39 1
    28   15   16 1
    29   15   40 1
    30   16   17 1
    31   16   41 1
    32   16   42 1
    33   17   18 1
    34   17   28 1
    35   17   43 1
    36   18   19 1
    37   18   44 1
    38   18   45 1
    39   19   20 1
    40   20   21 1
    41   20   46 1
    42   21   22 1
    43   21   25 1
    44   21   47 1
    45   22   24 1
    46   22   23 1
    47   22   48 1
    48   23   24 1
    49   23   49 1
    50   23   50 1
    51   24   51 1
    52   24   52 1
    53   25   27 1
    54   25   26 1
    55   25   53 1
    56   26   27 1
    57   26   54 1
    58   26   55 1
    59   27   56 1
    60   27   57 1
    61   28   58 1
@<TRIPOS>MOLECULE
CHEMBL307647
   37    39     0     0     0
SMALL
USER_CHARGES

@<TRIPOS>ATOM
      1 C1         -0.0173    1.4248    0.0099 C.3       1 <0>         0.0314
      2 O1          0.0021   -0.0041    0.0020 O.3       1 <0>        -0.3194
      3 C2         -1.2004   -0.6375    0.0101 C.ar      1 <0>         0.1782
      4 C3         -1.8066   -0.9629    1.2152 C.ar      1 <0>        -0.1200
      5 C4         -3.0293   -1.6071    1.2205 C.ar      1 <0>        -0.0401
      6 C5         -3.6486   -1.9273    0.0266 C.ar      1 <0>        -0.1265
      7 C6         -3.0467   -1.6048   -1.1756 C.ar      1 <0>        -0.0752
      8 C7         -1.8269   -0.9550   -1.1867 C.ar      1 <0>        -0.1221
      9 I1         -0.9203   -0.4577   -3.0087 I         1 <0>         0.0094
     10 C8         -4.9819   -2.6297    0.0355 C.3       1 <0>        -0.0955
     11 C9         -6.1054   -1.5912    0.0449 C.3       1 <0>         0.1603
     12 C10        -7.4235   -2.2779    0.1460 C.2       1 <0>        -0.3712
     13 C11        -8.5420   -2.0090   -0.5777 C.2       1 <0>         0.1596
     14 N1         -9.5903   -2.7742   -0.2961 N.2       1 <0>        -0.5951
     15 C12        -9.5341   -3.7163    0.6217 C.2       1 <0>         0.3500
     16 S1         -7.9500   -3.6069    1.1881 S.3       1 <0>         0.1894
     17 N2        -10.5346   -4.5870    1.0245 N.pl3     1 <0>        -0.7839
     18 C13        -8.5125   -0.8919   -1.6125 C.3       1 <0>        -0.0702
     19 C14        -7.2988   -0.0056   -1.3141 C.3       1 <0>        -0.0021
     20 N3         -6.0816   -0.8206   -1.2138 N.4       1 <0>        -0.5075
     21 I2         -0.8687   -0.4786    3.0249 I         1 <0>         0.0117
     22 H1          1.0053    1.8021    0.0021 H         1 <0>         0.1131
     23 H2         -0.5445    1.7859   -0.8732 H         1 <0>         0.0541
     24 H3         -0.5275    1.7763    0.9067 H         1 <0>         0.0551
     25 H4         -3.5014   -1.8608    2.1582 H         1 <0>         0.1478
     26 H5         -3.5324   -1.8564   -2.1068 H         1 <0>         0.1394
     27 H6         -5.0703   -3.2527   -0.8545 H         1 <0>         0.1092
     28 H7         -5.0573   -3.2547    0.9254 H         1 <0>         0.1253
     29 H8         -5.9755   -0.9169    0.8914 H         1 <0>         0.1496
     30 H9        -11.4111   -4.5431    0.6113 H         1 <0>         0.4244
     31 H10       -10.3582   -5.2403    1.7195 H         1 <0>         0.4288
     32 H11        -8.4217   -1.3172   -2.6120 H         1 <0>         0.1133
     33 H12        -9.4262   -0.3014   -1.5439 H         1 <0>         0.1331
     34 H13        -7.1793    0.7239   -2.1152 H         1 <0>         0.1470
     35 H14        -7.4590    0.5200   -0.3727 H         1 <0>         0.1371
     36 H15        -5.2720   -0.2185   -1.2240 H         1 <0>         0.4329
     37 H16        -6.0376   -1.4562   -1.9962 H         1 <0>         0.4285
@<TRIPOS>BOND
     1    1    2 1
     2    1   22 1
     3    1   23 1
     4    1   24 1
     5    2    3 1
     6    3    8 ar
     7    3    4 ar
     8    4    5 ar
     9    4   21 1
    10    5    6 ar
    11    5   25 1
    12    6    7 ar
    13    6   10 1
    14    7    8 ar
    15    7   26 1
    16    8    9 1
    17   10   11 1
    18   10   27 1
    19   10   28 1
    20   11   20 1
    21   11   12 1
    22   11   29 1
    23   12   16 1
    24   12   13 2
    25   13   14 1
    26   13   18 1
    27   14   15 2
    28   15   16 1
    29   15   17 1
    30   17   30 1
    31   17   31 1
    32   18   19 1
    33   18   32 1
    34   18   33 1
    35   19   20 1
    36   19   34 1
    37   19   35 1
    38   20   36 1
    39   20   37 1
@<TRIPOS>MOLECULE
CHEMBL307647
   38    40     0     0     0
SMALL
USER_CHARGES

@<TRIPOS>ATOM
      1 C1         -0.0173    1.4248    0.0099 C.3       1 <0>         0.0313
      2 O1          0.0021   -0.0041    0.0020 O.3       1 <0>        -0.3188
      3 C2          0.6059   -0.6072   -1.0559 C.ar      1 <0>         0.1893
      4 C3         -0.1298   -0.9214   -2.1897 C.ar      1 <0>        -0.1223
      5 C4          0.4866   -1.5347   -3.2639 C.ar      1 <0>        -0.0381
      6 C5          1.8351   -1.8352   -3.2095 C.ar      1 <0>        -0.1440
      7 C6          2.5704   -1.5236   -2.0809 C.ar      1 <0>        -0.0739
      8 C7          1.9603   -0.9047   -1.0062 C.ar      1 <0>        -0.1243
      9 I1          3.0775   -0.4239    0.6996 I         1 <0>         0.0200
     10 C8          2.5045   -2.5039   -4.3824 C.3       1 <0>        -0.0959
     11 C9          3.0417   -1.4376   -5.3391 C.3       1 <0>         0.1397
     12 C10         3.6235   -2.0913   -6.5446 C.2       1 <0>        -0.2839
     13 C11         4.8050   -1.7919   -7.1458 C.2       1 <0>         0.1218
     14 N1          5.0970   -2.5314   -8.2096 N.pl3     1 <0>        -0.5498
     15 C12         4.2887   -3.4779   -8.6386 C.cat     1 <0>         0.3311
     16 S1          3.0048   -3.4102   -7.5481 S.3       1 <0>         0.4476
     17 N2          4.4534   -4.3246   -9.7236 N.pl3     1 <0>        -0.7285
     18 C13         5.6691   -0.6722   -6.5807 C.3       1 <0>        -0.0856
     19 C14         4.7903    0.1823   -5.6613 C.3       1 <0>        -0.0062
     20 N3          4.1079   -0.6634   -4.6738 N.4       1 <0>        -0.5111
     21 I2         -2.1733   -0.4672   -2.2727 I         1 <0>         0.0225
     22 H1          1.0053    1.8021    0.0021 H         1 <0>         0.0555
     23 H2         -0.5445    1.7859   -0.8732 H         1 <0>         0.0566
     24 H3         -0.5275    1.7763    0.9067 H         1 <0>         0.1173
     25 H4         -0.0856   -1.7798   -4.1464 H         1 <0>         0.1481
     26 H5          3.6235   -1.7597   -2.0409 H         1 <0>         0.1395
     27 H6          3.3293   -3.1213   -4.0265 H         1 <0>         0.1169
     28 H7          1.7813   -3.1299   -4.9051 H         1 <0>         0.1294
     29 H8          2.2332   -0.7696   -5.6364 H         1 <0>         0.1767
     30 H9          5.2484   -4.2570  -10.2753 H         1 <0>         0.4429
     31 H10         3.7737   -4.9848   -9.9312 H         1 <0>         0.4589
     32 H11         6.4960   -1.0962   -6.0109 H         1 <0>         0.1396
     33 H12         6.0571   -0.0592   -7.3942 H         1 <0>         0.1522
     34 H13         5.4131    0.9113   -5.1427 H         1 <0>         0.1673
     35 H14         4.0469    0.7085   -6.2601 H         1 <0>         0.1498
     36 H15         3.7028   -0.0818   -3.9557 H         1 <0>         0.4494
     37 H16         5.9279   -2.3697   -8.6833 H         1 <0>         0.4444
     38 H17         4.7734   -1.2971   -4.2572 H         1 <0>         0.4345
@<TRIPOS>BOND
     1    1    2 1
     2    1   22 1
     3    1   23 1
     4    1   24 1
     5    2    3 1
     6    3    8 ar
     7    3    4 ar
     8    4    5 ar
     9    4   21 1
    10    5    6 ar
    11    5   25 1
    12    6    7 ar
    13    6   10 1
    14    7    8 ar
    15    7   26 1
    16    8    9 1
    17   10   11 1
    18   10   27 1
    19   10   28 1
    20   11   20 1
    21   11   12 1
    22   11   29 1
    23   12   16 1
    24   12   13 2
    25   13   14 1
    26   13   18 1
    27   14   15 2
    28   14   37 1
    29   15   16 1
    30   15   17 1
    31   17   30 1
    32   17   31 1
    33   18   19 1
    34   18   32 1
    35   18   33 1
    36   19   20 1
    37   19   34 1
    38   19   35 1
    39   20   36 1
    40   20   38 1
@<TRIPOS>MOLECULE
CHEMBL307647
   37    39     0     0     0
SMALL
USER_CHARGES

@<TRIPOS>ATOM
      1 C1         -0.0173    1.4248    0.0099 C.3       1 <0>         0.0322
      2 O1          0.0021   -0.0041    0.0020 O.3       1 <0>        -0.3209
      3 C2          0.6259   -0.6185    1.0416 C.ar      1 <0>         0.1683
      4 C3          1.9804   -0.9101    0.9652 C.ar      1 <0>        -0.1235
      5 C4          2.6122   -1.5350    2.0238 C.ar      1 <0>        -0.0516
      6 C5          1.8959   -1.8694    3.1581 C.ar      1 <0>        -0.1007
      7 C6          0.5462   -1.5803    3.2367 C.ar      1 <0>        -0.0445
      8 C7         -0.0893   -0.9500    2.1836 C.ar      1 <0>        -0.1238
      9 I1         -2.1324   -0.5034    2.3077 I         1 <0>        -0.0019
     10 C8          2.5876   -2.5506    4.3108 C.3       1 <0>        -0.0702
     11 C9          3.1311   -1.4947    5.2754 C.3       1 <0>         0.1710
     12 C10         3.8915   -2.1583    6.3716 C.2       1 <0>        -0.1876
     13 C11         3.8035   -1.8982    7.7023 C.2       1 <0>         0.0934
     14 N1          4.5932   -2.6392    8.4721 N.pl3     1 <0>        -0.5425
     15 C12         5.3970   -3.5509    7.9668 C.cat     1 <0>         0.3137
     16 S1          5.1040   -3.4454    6.3100 S.3       1 <0>         0.3732
     17 N2          6.2722   -4.3930    8.6348 N.pl3     1 <0>        -0.7546
     18 C13         2.8495   -0.8193    8.1976 C.3       1 <0>        -0.0525
     19 C14         2.4794    0.0714    7.0076 C.3       1 <0>         0.0518
     20 N3          2.0100   -0.7491    5.8822 N.3       1 <0>        -0.6754
     21 I2          3.0664   -0.4045   -0.7534 I         1 <0>        -0.0035
     22 H1          1.0053    1.8021    0.0021 H         1 <0>         0.0525
     23 H2         -0.5445    1.7859   -0.8732 H         1 <0>         0.1091
     24 H3         -0.5275    1.7763    0.9067 H         1 <0>         0.0531
     25 H4          3.6663   -1.7625    1.9647 H         1 <0>         0.1395
     26 H5         -0.0111   -1.8429    4.1238 H         1 <0>         0.1476
     27 H6          1.8768   -3.1898    4.8345 H         1 <0>         0.1015
     28 H7          3.4114   -3.1564    3.9334 H         1 <0>         0.0868
     29 H8          3.7834   -0.8062    4.7382 H         1 <0>         0.0874
     30 H9          6.3443   -4.3499    9.6011 H         1 <0>         0.4339
     31 H10         6.8125   -5.0255    8.1358 H         1 <0>         0.4505
     32 H11         1.9504   -1.2818    8.6049 H         1 <0>         0.1173
     33 H12         3.3376   -0.2214    8.9672 H         1 <0>         0.1054
     34 H13         1.6896    0.7611    7.3051 H         1 <0>         0.1085
     35 H14         3.3551    0.6418    6.6978 H         1 <0>         0.0524
     36 H15         1.5380   -0.1823    5.1937 H         1 <0>         0.3695
     37 H16         4.5772   -2.5046    9.4326 H         1 <0>         0.4345
@<TRIPOS>BOND
     1    1    2 1
     2    1   22 1
     3    1   23 1
     4    1   24 1
     5    2    3 1
     6    3    8 ar
     7    3    4 ar
     8    4    5 ar
     9    4   21 1
    10    5    6 ar
    11    5   25 1
    12    6    7 ar
    13    6   10 1
    14    7    8 ar
    15    7   26 1
    16    8    9 1
    17   10   11 1
    18   10   27 1
    19   10   28 1
    20   11   20 1
    21   11   12 1
    22   11   29 1
    23   12   16 1
    24   12   13 2
    25   13   14 1
    26   13   18 1
    27   14   15 2
    28   14   37 1
    29   15   16 1
    30   15   17 1
    31   17   30 1
    32   17   31 1
    33   18   19 1
    34   18   32 1
    35   18   33 1
    36   19   20 1
    37   19   34 1
    38   19   35 1
    39   20   36 1
@<TRIPOS>MOLECULE
CHEMBL307647
   36    38     0     0     0
SMALL
USER_CHARGES

@<TRIPOS>ATOM
      1 C1         -0.0173    1.4248    0.0099 C.3       1 <0>         0.0322
      2 O1          0.0021   -0.0041    0.0020 O.3       1 <0>        -0.3213
      3 C2         -1.2004   -0.6375    0.0101 C.ar      1 <0>         0.1570
      4 C3         -1.8066   -0.9629    1.2152 C.ar      1 <0>        -0.1209
      5 C4         -3.0293   -1.6071    1.2205 C.ar      1 <0>        -0.0538
      6 C5         -3.6486   -1.9273    0.0266 C.ar      1 <0>        -0.0832
      7 C6         -3.0467   -1.6048   -1.1756 C.ar      1 <0>        -0.0456
      8 C7         -1.8269   -0.9550   -1.1867 C.ar      1 <0>        -0.1213
      9 I1         -0.9203   -0.4577   -3.0087 I         1 <0>        -0.0122
     10 C8         -4.9819   -2.6297    0.0355 C.3       1 <0>        -0.0698
     11 C9         -6.1054   -1.5912    0.0449 C.3       1 <0>         0.1932
     12 C10        -7.4244   -2.2775    0.1420 C.2       1 <0>        -0.2628
     13 C11        -8.5368   -2.0199   -0.5943 C.2       1 <0>         0.1304
     14 N1         -9.5867   -2.7833   -0.3102 N.2       1 <0>        -0.5934
     15 C12        -9.5364   -3.7133    0.6198 C.2       1 <0>         0.3236
     16 S1         -7.9569   -3.5944    1.1968 S.3       1 <0>         0.1047
     17 N2        -10.5389   -4.5798    1.0265 N.pl3     1 <0>        -0.8040
     18 C13        -8.5059   -0.9192   -1.6463 C.3       1 <0>        -0.0368
     19 C14        -7.3042   -0.0153   -1.3540 C.3       1 <0>         0.0584
     20 N3         -6.0822   -0.8198   -1.2142 N.3       1 <0>        -0.6764
     21 I2         -0.8687   -0.4786    3.0249 I         1 <0>        -0.0142
     22 H1          1.0053    1.8021    0.0021 H         1 <0>         0.1048
     23 H2         -0.5445    1.7859   -0.8732 H         1 <0>         0.0518
     24 H3         -0.5275    1.7763    0.9067 H         1 <0>         0.0511
     25 H4         -3.5014   -1.8608    2.1582 H         1 <0>         0.1393
     26 H5         -3.5324   -1.8564   -2.1068 H         1 <0>         0.1476
     27 H6         -5.0703   -3.2527   -0.8545 H         1 <0>         0.0946
     28 H7         -5.0573   -3.2547    0.9254 H         1 <0>         0.0839
     29 H8         -5.9768   -0.9174    0.8920 H         1 <0>         0.0573
     30 H9        -11.4124   -4.5422    0.6064 H         1 <0>         0.4148
     31 H10       -10.3670   -5.2239    1.7311 H         1 <0>         0.4196
     32 H11        -8.4021   -1.3603   -2.6377 H         1 <0>         0.0908
     33 H12        -9.4256   -0.3364   -1.5965 H         1 <0>         0.0857
     34 H13        -7.1779    0.6930   -2.1728 H         1 <0>         0.0873
     35 H14        -7.4824    0.5341   -0.4296 H         1 <0>         0.0384
     36 H15        -5.2589   -0.2390   -1.2673 H         1 <0>         0.3493
@<TRIPOS>BOND
     1    1    2 1
     2    1   22 1
     3    1   23 1
     4    1   24 1
     5    2    3 1
     6    3    8 ar
     7    3    4 ar
     8    4    5 ar
     9    4   21 1
    10    5    6 ar
    11    5   25 1
    12    6    7 ar
    13    6   10 1
    14    7    8 ar
    15    7   26 1
    16    8    9 1
    17   10   11 1
    18   10   27 1
    19   10   28 1
    20   11   20 1
    21   11   12 1
    22   11   29 1
    23   12   16 1
    24   12   13 2
    25   13   14 1
    26   13   18 1
    27   14   15 2
    28   15   16 1
    29   15   17 1
    30   17   30 1
    31   17   31 1
    32   18   19 1
    33   18   32 1
    34   18   33 1
    35   19   20 1
    36   19   34 1
    37   19   35 1
    38   20   36 1
@<TRIPOS>MOLECULE
CHEMBL307647
   37    39     0     0     0
SMALL
USER_CHARGES

@<TRIPOS>ATOM
      1 C1         -0.0173    1.4248    0.0099 C.3       1 <0>         0.0314
      2 O1          0.0021   -0.0041    0.0020 O.3       1 <0>        -0.3194
      3 C2         -1.2004   -0.6375    0.0101 C.ar      1 <0>         0.1781
      4 C3         -1.8066   -0.9629    1.2152 C.ar      1 <0>        -0.1220
      5 C4         -3.0293   -1.6071    1.2205 C.ar      1 <0>        -0.0754
      6 C5         -3.6486   -1.9273    0.0266 C.ar      1 <0>        -0.1265
      7 C6         -3.0467   -1.6048   -1.1756 C.ar      1 <0>        -0.0400
      8 C7         -1.8269   -0.9550   -1.1867 C.ar      1 <0>        -0.1200
      9 I1         -0.9203   -0.4577   -3.0087 I         1 <0>         0.0117
     10 C8         -4.9819   -2.6297    0.0355 C.3       1 <0>        -0.0955
     11 C9         -6.1054   -1.5912    0.0449 C.3       1 <0>         0.1603
     12 C10        -7.4248   -2.2777   -0.0384 C.2       1 <0>        -0.3712
     13 C11        -8.5326   -2.0105    0.7022 C.2       1 <0>         0.1595
     14 N1         -9.5849   -2.7752    0.4345 N.2       1 <0>        -0.5951
     15 C12        -9.5421   -3.7154   -0.4860 C.2       1 <0>         0.3500
     16 S1         -7.9665   -3.6046   -1.0754 S.3       1 <0>         0.1894
     17 N2        -10.5482   -4.5855   -0.8758 N.pl3     1 <0>        -0.7839
     18 C13        -8.4881   -0.8954    1.7388 C.3       1 <0>        -0.0702
     19 C14        -7.2790   -0.0083    1.4244 C.3       1 <0>        -0.0020
     20 N3         -6.0632   -0.8235    1.3049 N.4       1 <0>        -0.5076
     21 I2         -0.8687   -0.4786    3.0249 I         1 <0>         0.0094
     22 H1          1.0053    1.8021    0.0021 H         1 <0>         0.1131
     23 H2         -0.5445    1.7859   -0.8732 H         1 <0>         0.0551
     24 H3         -0.5275    1.7763    0.9067 H         1 <0>         0.0541
     25 H4         -3.5014   -1.8608    2.1582 H         1 <0>         0.1394
     26 H5         -3.5324   -1.8564   -2.1068 H         1 <0>         0.1478
     27 H6         -5.0703   -3.2527   -0.8545 H         1 <0>         0.1254
     28 H7         -5.0573   -3.2547    0.9254 H         1 <0>         0.1091
     29 H8         -5.9879   -0.9150   -0.8018 H         1 <0>         0.1496
     30 H9        -11.4188   -4.5420   -0.4503 H         1 <0>         0.4244
     31 H10       -10.3818   -5.2377   -1.5742 H         1 <0>         0.4288
     32 H11        -9.4027   -0.3050    1.6848 H         1 <0>         0.1331
     33 H12        -8.3826   -1.3228    2.7359 H         1 <0>         0.1133
     34 H13        -7.4530    0.5192    0.4865 H         1 <0>         0.1371
     35 H14        -7.1479    0.7195    2.2251 H         1 <0>         0.1469
     36 H15        -6.0077   -1.4608    2.0851 H         1 <0>         0.4285
     37 H16        -5.2535   -0.2214    1.3046 H         1 <0>         0.4329
@<TRIPOS>BOND
     1    1    2 1
     2    1   22 1
     3    1   23 1
     4    1   24 1
     5    2    3 1
     6    3    8 ar
     7    3    4 ar
     8    4    5 ar
     9    4   21 1
    10    5    6 ar
    11    5   25 1
    12    6    7 ar
    13    6   10 1
    14    7    8 ar
    15    7   26 1
    16    8    9 1
    17   10   11 1
    18   10   27 1
    19   10   28 1
    20   11   20 1
    21   11   12 1
    22   11   29 1
    23   12   16 1
    24   12   13 2
    25   13   14 1
    26   13   18 1
    27   14   15 2
    28   15   16 1
    29   15   17 1
    30   17   30 1
    31   17   31 1
    32   18   19 1
    33   18   32 1
    34   18   33 1
    35   19   20 1
    36   19   34 1
    37   19   35 1
    38   20   36 1
    39   20   37 1
@<TRIPOS>MOLECULE
CHEMBL307647
   36    38     0     0     0
SMALL
USER_CHARGES

@<TRIPOS>ATOM
      1 C1         -0.0173    1.4248    0.0099 C.3       1 <0>         0.0327
      2 O1          0.0021   -0.0041    0.0020 O.3       1 <0>        -0.3222
      3 C2         -1.2004   -0.6375    0.0101 C.ar      1 <0>         0.1556
      4 C3         -1.8066   -0.9629    1.2152 C.ar      1 <0>        -0.1191
      5 C4         -3.0293   -1.6071    1.2205 C.ar      1 <0>        -0.0324
      6 C5         -3.6486   -1.9273    0.0266 C.ar      1 <0>        -0.0692
      7 C6         -3.0467   -1.6048   -1.1756 C.ar      1 <0>        -0.0534
      8 C7         -1.8269   -0.9550   -1.1867 C.ar      1 <0>        -0.1200
      9 I1         -0.9203   -0.4577   -3.0087 I         1 <0>        -0.0174
     10 C8         -4.9819   -2.6297    0.0355 C.3       1 <0>        -0.0747
     11 C9         -6.1054   -1.5912    0.0449 C.3       1 <0>         0.1908
     12 C10        -7.4257   -2.2773   -0.0344 C.2       1 <0>        -0.2957
     13 C11        -8.5272   -2.0214    0.7187 C.2       1 <0>         0.1215
     14 N1         -9.5811   -2.7841    0.4483 N.2       1 <0>        -0.5932
     15 C12        -9.5445   -3.7121   -0.4845 C.2       1 <0>         0.3234
     16 S1         -7.9736   -3.5918   -1.0843 S.3       1 <0>         0.1032
     17 N2        -10.5529   -4.5777   -0.8784 N.pl3     1 <0>        -0.8036
     18 C13        -8.4809   -0.9230    1.7726 C.3       1 <0>        -0.0793
     19 C14        -7.2836   -0.0183    1.4646 C.3       1 <0>         0.0575
     20 N3         -6.0638   -0.8226    1.3053 N.3       1 <0>        -0.6618
     21 I2         -0.8687   -0.4786    3.0249 I         1 <0>        -0.0165
     22 H1          1.0053    1.8021    0.0021 H         1 <0>         0.1036
     23 H2         -0.5445    1.7859   -0.8732 H         1 <0>         0.0510
     24 H3         -0.5275    1.7763    0.9067 H         1 <0>         0.0518
     25 H4         -3.5014   -1.8608    2.1582 H         1 <0>         0.1383
     26 H5         -3.5324   -1.8564   -2.1068 H         1 <0>         0.1378
     27 H6         -5.0703   -3.2527   -0.8545 H         1 <0>         0.0867
     28 H7         -5.0573   -3.2547    0.9254 H         1 <0>         0.0840
     29 H8         -5.9892   -0.9155   -0.8024 H         1 <0>         0.0991
     30 H9        -11.4204   -4.5405   -0.4459 H         1 <0>         0.4148
     31 H10       -10.3911   -5.2206   -1.5864 H         1 <0>         0.4200
     32 H11        -9.4013   -0.3401    1.7375 H         1 <0>         0.0890
     33 H12        -8.3626   -1.3663    2.7613 H         1 <0>         0.0839
     34 H13        -7.4755    0.5330    0.5441 H         1 <0>         0.0785
     35 H14        -7.1454    0.6882    2.2831 H         1 <0>         0.0913
     36 H15        -5.9269   -1.4332    2.0968 H         1 <0>         0.3438
@<TRIPOS>BOND
     1    1    2 1
     2    1   22 1
     3    1   23 1
     4    1   24 1
     5    2    3 1
     6    3    8 ar
     7    3    4 ar
     8    4    5 ar
     9    4   21 1
    10    5    6 ar
    11    5   25 1
    12    6    7 ar
    13    6   10 1
    14    7    8 ar
    15    7   26 1
    16    8    9 1
    17   10   11 1
    18   10   27 1
    19   10   28 1
    20   11   20 1
    21   11   12 1
    22   11   29 1
    23   12   16 1
    24   12   13 2
    25   13   14 1
    26   13   18 1
    27   14   15 2
    28   15   16 1
    29   15   17 1
    30   17   30 1
    31   17   31 1
    32   18   19 1
    33   18   32 1
    34   18   33 1
    35   19   20 1
    36   19   34 1
    37   19   35 1
    38   20   36 1
@<TRIPOS>MOLECULE
CHEMBL307647
   38    40     0     0     0
SMALL
USER_CHARGES

@<TRIPOS>ATOM
      1 C1         -0.0173    1.4248    0.0099 C.3       1 <0>         0.0313
      2 O1          0.0021   -0.0041    0.0020 O.3       1 <0>        -0.3188
      3 C2          0.6059   -0.6072   -1.0559 C.ar      1 <0>         0.1893
      4 C3         -0.1298   -0.9214   -2.1897 C.ar      1 <0>        -0.1241
      5 C4          0.4866   -1.5347   -3.2639 C.ar      1 <0>        -0.0741
      6 C5          1.8351   -1.8352   -3.2095 C.ar      1 <0>        -0.1440
      7 C6          2.5704   -1.5236   -2.0809 C.ar      1 <0>        -0.0380
      8 C7          1.9603   -0.9047   -1.0062 C.ar      1 <0>        -0.1222
      9 I1          3.0775   -0.4239    0.6996 I         1 <0>         0.0225
     10 C8          2.5045   -2.5039   -4.3824 C.3       1 <0>        -0.0959
     11 C9          3.0417   -1.4376   -5.3391 C.3       1 <0>         0.1397
     12 C10         3.7839   -2.0904   -6.4536 C.2       1 <0>        -0.2838
     13 C11         3.6919   -1.7980   -7.7776 C.2       1 <0>         0.1218
     14 N1          4.4616   -2.5351   -8.5702 N.pl3     1 <0>        -0.5498
     15 C12         5.2519   -3.4730   -8.0917 C.cat     1 <0>         0.3311
     16 S1          4.9734   -3.3996   -6.4306 S.3       1 <0>         0.4475
     17 N2          6.1059   -4.3161   -8.7854 N.pl3     1 <0>        -0.7285
     18 C13         2.7546   -0.6881   -8.2351 C.3       1 <0>        -0.0856
     19 C14         2.4089    0.1695   -7.0133 C.3       1 <0>        -0.0061
     20 N3          1.9175   -0.6755   -5.9171 N.4       1 <0>        -0.5112
     21 I2         -2.1733   -0.4672   -2.2727 I         1 <0>         0.0200
     22 H1          1.0053    1.8021    0.0021 H         1 <0>         0.0566
     23 H2         -0.5445    1.7859   -0.8732 H         1 <0>         0.0555
     24 H3         -0.5275    1.7763    0.9067 H         1 <0>         0.1173
     25 H4         -0.0856   -1.7798   -4.1464 H         1 <0>         0.1395
     26 H5          3.6235   -1.7597   -2.0409 H         1 <0>         0.1481
     27 H6          3.3293   -3.1213   -4.0265 H         1 <0>         0.1294
     28 H7          1.7813   -3.1299   -4.9051 H         1 <0>         0.1169
     29 H8          3.7058   -0.7615   -4.8006 H         1 <0>         0.1767
     30 H9          6.1715   -4.2525   -9.7511 H         1 <0>         0.4429
     31 H10         6.6380   -4.9696   -8.3051 H         1 <0>         0.4588
     32 H11         3.2492   -0.0747   -8.9882 H         1 <0>         0.1522
     33 H12         1.8450   -1.1215   -8.6508 H         1 <0>         0.1396
     34 H13         3.2998    0.7045   -6.6846 H         1 <0>         0.1498
     35 H14         1.6385    0.8909   -7.2855 H         1 <0>         0.1672
     36 H15         1.2239   -1.3168   -6.2720 H         1 <0>         0.4346
     37 H16         4.4405   -2.3785   -9.5273 H         1 <0>         0.4444
     38 H17         1.5037   -0.0940   -5.2040 H         1 <0>         0.4494
@<TRIPOS>BOND
     1    1    2 1
     2    1   22 1
     3    1   23 1
     4    1   24 1
     5    2    3 1
     6    3    8 ar
     7    3    4 ar
     8    4    5 ar
     9    4   21 1
    10    5    6 ar
    11    5   25 1
    12    6    7 ar
    13    6   10 1
    14    7    8 ar
    15    7   26 1
    16    8    9 1
    17   10   11 1
    18   10   27 1
    19   10   28 1
    20   11   20 1
    21   11   12 1
    22   11   29 1
    23   12   16 1
    24   12   13 2
    25   13   14 1
    26   13   18 1
    27   14   15 2
    28   14   37 1
    29   15   16 1
    30   15   17 1
    31   17   30 1
    32   17   31 1
    33   18   19 1
    34   18   32 1
    35   18   33 1
    36   19   20 1
    37   19   34 1
    38   19   35 1
    39   20   36 1
    40   20   38 1
@<TRIPOS>MOLECULE
CHEMBL307647
   37    39     0     0     0
SMALL
USER_CHARGES

@<TRIPOS>ATOM
      1 C1         -0.0173    1.4248    0.0099 C.3       1 <0>         0.0327
      2 O1          0.0021   -0.0041    0.0020 O.3       1 <0>        -0.3219
      3 C2          0.6259   -0.6185    1.0416 C.ar      1 <0>         0.1671
      4 C3          1.9804   -0.9101    0.9652 C.ar      1 <0>        -0.1218
      5 C4          2.6122   -1.5350    2.0238 C.ar      1 <0>        -0.0306
      6 C5          1.8959   -1.8694    3.1581 C.ar      1 <0>        -0.0871
      7 C6          0.5462   -1.5803    3.2367 C.ar      1 <0>        -0.0509
      8 C7         -0.0893   -0.9500    2.1836 C.ar      1 <0>        -0.1225
      9 I1         -2.1324   -0.5034    2.3077 I         1 <0>        -0.0067
     10 C8          2.5876   -2.5506    4.3108 C.3       1 <0>        -0.0755
     11 C9          3.1311   -1.4947    5.2754 C.3       1 <0>         0.1726
     12 C10         3.7395   -2.1616    6.4610 C.2       1 <0>        -0.2197
     13 C11         4.9355   -1.8735    7.0375 C.2       1 <0>         0.0825
     14 N1          5.2472   -2.6250    8.0881 N.pl3     1 <0>        -0.5423
     15 C12         4.4444   -3.5716    8.5262 C.cat     1 <0>         0.3138
     16 S1          3.1372   -3.4881    7.4649 S.3       1 <0>         0.3677
     17 N2          4.6288   -4.4288    9.5998 N.pl3     1 <0>        -0.7541
     18 C13         5.7972   -0.7552    6.4667 C.3       1 <0>        -0.0966
     19 C14         4.9096    0.1244    5.5806 C.3       1 <0>         0.0539
     20 N3          4.1823   -0.7018    4.6066 N.3       1 <0>        -0.6521
     21 I2          3.0664   -0.4045   -0.7534 I         1 <0>        -0.0061
     22 H1          1.0053    1.8021    0.0021 H         1 <0>         0.0530
     23 H2         -0.5445    1.7859   -0.8732 H         1 <0>         0.1079
     24 H3         -0.5275    1.7763    0.9067 H         1 <0>         0.0525
     25 H4          3.6663   -1.7625    1.9647 H         1 <0>         0.1379
     26 H5         -0.0111   -1.8429    4.1238 H         1 <0>         0.1381
     27 H6          1.8768   -3.1898    4.8345 H         1 <0>         0.0905
     28 H7          3.4114   -3.1564    3.9334 H         1 <0>         0.0913
     29 H8          2.3224   -0.8380    5.5961 H         1 <0>         0.1278
     30 H9          5.4359   -4.3697   10.1345 H         1 <0>         0.4337
     31 H10         3.9507   -5.0877    9.8163 H         1 <0>         0.4508
     32 H11         6.2122   -0.1589    7.2793 H         1 <0>         0.1096
     33 H12         6.6053   -1.1804    5.8714 H         1 <0>         0.1106
     34 H13         4.1947    0.6601    6.2050 H         1 <0>         0.0924
     35 H14         5.5315    0.8449    5.0492 H         1 <0>         0.1134
     36 H15         4.8145   -1.2985    4.0945 H         1 <0>         0.3546
     37 H16         6.0892   -2.4717    8.5447 H         1 <0>         0.4337
@<TRIPOS>BOND
     1    1    2 1
     2    1   22 1
     3    1   23 1
     4    1   24 1
     5    2    3 1
     6    3    8 ar
     7    3    4 ar
     8    4    5 ar
     9    4   21 1
    10    5    6 ar
    11    5   25 1
    12    6    7 ar
    13    6   10 1
    14    7    8 ar
    15    7   26 1
    16    8    9 1
    17   10   11 1
    18   10   27 1
    19   10   28 1
    20   11   20 1
    21   11   12 1
    22   11   29 1
    23   12   16 1
    24   12   13 2
    25   13   14 1
    26   13   18 1
    27   14   15 2
    28   14   37 1
    29   15   16 1
    30   15   17 1
    31   17   30 1
    32   17   31 1
    33   18   19 1
    34   18   32 1
    35   18   33 1
    36   19   20 1
    37   19   34 1
    38   19   35 1
    39   20   36 1
@<TRIPOS>MOLECULE
CHEMBL183552
   73    77     0     0     0
SMALL
USER_CHARGES

@<TRIPOS>ATOM
      1 C1         -0.0187    1.5258    0.0104 C.3       1 <0>        -0.1843
      2 C2          0.0021   -0.0041    0.0020 C.3       1 <0>         0.0272
      3 H1         -1.0205   -0.3814    0.0098 H         1 <0>         0.1396
      4 C3          0.7421   -0.5109    1.2415 C.3       1 <0>        -0.0579
      5 C4          0.6567   -2.0144    1.2978 C.2       1 <0>        -0.2301
      6 C5         -0.2496   -2.7379    1.9742 C.2       1 <0>         0.1118
      7 N1         -0.0127   -4.0722    1.7894 N.pl3     1 <0>        -0.5697
      8 H2         -0.5361   -4.7904    2.1782 H         1 <0>         0.4293
      9 C6          1.0807   -4.2438    0.9680 C.ar      1 <0>         0.1200
     10 C7          1.5430   -2.9632    0.6196 C.ar      1 <0>        -0.1031
     11 C8          2.6511   -2.8259   -0.2206 C.ar      1 <0>        -0.0877
     12 C9          3.2801   -3.9382   -0.7043 C.ar      1 <0>        -0.1080
     13 C10         2.8283   -5.2067   -0.3686 C.ar      1 <0>        -0.1034
     14 C11         1.7394   -5.3674    0.4678 C.ar      1 <0>         0.0744
     15 O1          1.3029   -6.6143    0.7889 O.3       1 <0>        -0.6606
     16 S1          0.2696   -7.1763   -0.1770 S.o2      1 <0>         2.5866
     17 O2         -0.2354   -8.3376    0.4676 O.2       1 <0>        -0.9178
     18 O3         -0.5864   -6.0805   -0.4702 O.2       1 <0>        -0.9573
     19 C12         1.2158   -7.6423   -1.6528 C.3       1 <0>        -0.6935
     20 N2          0.6897   -0.4778   -1.2066 N.4       1 <0>        -0.5061
     21 C13        -0.0856   -0.0931   -2.3936 C.3       1 <0>        -0.0466
     22 C14         0.6305   -0.5866   -3.6524 C.3       1 <0>         0.1352
     23 H3          0.7239   -1.6719   -3.6155 H         1 <0>         0.1284
     24 C15        -0.1648   -0.1919   -4.8701 C.ar      1 <0>        -0.0892
     25 C16         0.0062    1.0609   -5.4306 C.ar      1 <0>        -0.1695
     26 C17        -0.7218    1.4272   -6.5475 C.ar      1 <0>        -0.0606
     27 C18        -1.6223    0.5422   -7.1077 C.ar      1 <0>        -0.1825
     28 C19        -1.7961   -0.7168   -6.5476 C.ar      1 <0>         0.2273
     29 C20        -1.0592   -1.0835   -5.4283 C.ar      1 <0>        -0.1834
     30 N3         -2.7059   -1.6142   -7.1114 N.pl3     1 <0>        -0.7378
     31 C21        -3.4781   -1.2278   -8.2949 C.3       1 <0>         0.1644
     32 C22        -4.3792   -2.3657   -8.7003 C.ar      1 <0>        -0.1111
     33 C23        -3.9115   -3.3261   -9.5956 C.ar      1 <0>        -0.1048
     34 C24        -4.6996   -4.3660   -9.9825 C.ar      1 <0>        -0.1012
     35 C25        -6.0048   -4.4764   -9.4734 C.ar      1 <0>        -0.0455
     36 C26        -6.8477   -5.5363   -9.8492 C.ar      1 <0>        -0.1086
     37 C27        -8.1057   -5.6109   -9.3353 C.ar      1 <0>        -0.1087
     38 C28        -8.5732   -4.6507   -8.4398 C.ar      1 <0>        -0.1121
     39 C29        -7.7853   -3.6105   -8.0532 C.ar      1 <0>        -0.1065
     40 C30        -6.4802   -3.5000   -8.5627 C.ar      1 <0>        -0.0562
     41 C31        -5.6354   -2.4432   -8.1825 C.ar      1 <0>        -0.0799
     42 O4          1.9312    0.0013   -3.7219 O.3       1 <0>        -0.5473
     43 H4          1.0039    1.9031    0.0027 H         1 <0>         0.0838
     44 H5         -0.5459    1.8868   -0.8726 H         1 <0>         0.0819
     45 H6         -0.5289    1.8773    0.9072 H         1 <0>         0.1079
     46 H7          1.7879   -0.2080    1.1895 H         1 <0>         0.0974
     47 H8          0.2852   -0.0874    2.1360 H         1 <0>         0.1214
     48 H9         -1.0473   -2.3272    2.5754 H         1 <0>         0.1858
     49 H10         3.0094   -1.8426   -0.4874 H         1 <0>         0.1301
     50 H11         4.1360   -3.8293   -1.3538 H         1 <0>         0.1495
     51 H12         3.3361   -6.0763   -0.7590 H         1 <0>         0.1526
     52 H13         1.9641   -8.3880   -1.3841 H         1 <0>         0.1397
     53 H14         0.5408   -8.0581   -2.4009 H         1 <0>         0.1423
     54 H15         1.7111   -6.7609   -2.0602 H         1 <0>         0.1312
     55 H16         1.6080   -0.0627   -1.2556 H         1 <0>         0.4255
     56 H17        -1.0777   -0.5415   -2.3406 H         1 <0>         0.1430
     57 H18        -0.1790    0.9922   -2.4305 H         1 <0>         0.1403
     58 H19         0.7097    1.7547   -4.9946 H         1 <0>         0.1179
     59 H20        -0.5864    2.4065   -6.9823 H         1 <0>         0.1287
     60 H21        -2.1909    0.8290   -7.9799 H         1 <0>         0.1274
     61 H22        -1.1890   -2.0633   -4.9928 H         1 <0>         0.1227
     62 H23        -2.8265   -2.4932   -6.7194 H         1 <0>         0.4031
     63 H24        -4.0823   -0.3505   -8.0640 H         1 <0>         0.0719
     64 H25        -2.7968   -0.9946   -9.1131 H         1 <0>         0.0730
     65 H26        -2.9089   -3.2437   -9.9884 H         1 <0>         0.1242
     66 H27        -4.3240   -5.1024  -10.6776 H         1 <0>         0.1308
     67 H28        -6.4991   -6.2875  -10.5424 H         1 <0>         0.1300
     68 H29        -8.7516   -6.4262   -9.6260 H         1 <0>         0.1271
     69 H30        -9.5759   -4.7330   -8.0470 H         1 <0>         0.1266
     70 H31        -8.1611   -2.8737   -7.3588 H         1 <0>         0.1279
     71 H32        -5.9826   -1.6943   -7.4861 H         1 <0>         0.1276
     72 H33         1.9246    0.9676   -3.7575 H         1 <0>         0.3879
     73 H34         0.7761   -1.4825   -1.1724 H         1 <0>         0.4274
@<TRIPOS>BOND
     1    1    2 1
     2    1   43 1
     3    1   44 1
     4    1   45 1
     5    2    3 1
     6    2    4 1
     7    2   20 1
     8    4    5 1
     9    4   46 1
    10    4   47 1
    11    5   10 1
    12    5    6 2
    13    6    7 1
    14    6   48 1
    15    7    8 1
    16    7    9 1
    17    9   14 ar
    18    9   10 ar
    19   10   11 ar
    20   11   12 ar
    21   11   49 1
    22   12   13 ar
    23   12   50 1
    24   13   14 ar
    25   13   51 1
    26   14   15 1
    27   15   16 1
    28   16   17 2
    29   16   18 2
    30   16   19 1
    31   19   52 1
    32   19   53 1
    33   19   54 1
    34   20   21 1
    35   20   55 1
    36   20   73 1
    37   21   22 1
    38   21   56 1
    39   21   57 1
    40   22   23 1
    41   22   24 1
    42   22   42 1
    43   24   29 ar
    44   24   25 ar
    45   25   26 ar
    46   25   58 1
    47   26   27 ar
    48   26   59 1
    49   27   28 ar
    50   27   60 1
    51   28   29 ar
    52   28   30 1
    53   29   61 1
    54   30   31 1
    55   30   62 1
    56   31   32 1
    57   31   63 1
    58   31   64 1
    59   32   41 ar
    60   32   33 ar
    61   33   34 ar
    62   33   65 1
    63   34   35 ar
    64   34   66 1
    65   35   40 ar
    66   35   36 ar
    67   36   37 ar
    68   36   67 1
    69   37   38 ar
    70   37   68 1
    71   38   39 ar
    72   38   69 1
    73   39   40 ar
    74   39   70 1
    75   40   41 ar
    76   41   71 1
    77   42   72 1
@<TRIPOS>MOLECULE
CHEMBL387852
   50    51     0     0     0
SMALL
USER_CHARGES

@<TRIPOS>ATOM
      1 C1         -0.0187    1.5258    0.0104 C.3       1 <0>        -0.1539
      2 C2          0.0021   -0.0041    0.0020 C.3       1 <0>         0.0616
      3 O1         -1.3386   -0.4987    0.0122 O.3       1 <0>        -0.3480
      4 C3         -1.4964   -1.8317    0.0065 C.2       1 <0>         0.4604
      5 O2         -0.5283   -2.5546   -0.0066 O.2       1 <0>        -0.4769
      6 C4         -2.8809   -2.4266    0.0165 C.3       1 <0>         0.0679
      7 O3         -2.7868   -3.8524    0.0080 O.3       1 <0>        -0.2881
      8 C5         -3.9544   -4.5479    0.0154 C.ar      1 <0>         0.1495
      9 C6         -5.1658   -3.8718    0.0248 C.ar      1 <0>        -0.2021
     10 C7         -6.3512   -4.5810    0.0318 C.ar      1 <0>        -0.0972
     11 C8         -6.3311   -5.9635    0.0300 C.ar      1 <0>        -0.1678
     12 C9         -5.1251   -6.6397    0.0211 C.ar      1 <0>        -0.0603
     13 C10        -3.9369   -5.9351    0.0078 C.ar      1 <0>        -0.1341
     14 C11        -7.6258   -6.7347    0.0382 C.3       1 <0>        -0.0933
     15 C12        -8.0741   -6.9939   -1.4015 C.3       1 <0>         0.0293
     16 H1         -7.2738   -7.4941   -1.9468 H         1 <0>         0.1430
     17 C13        -9.3198   -7.8822   -1.3956 C.3       1 <0>        -0.1860
     18 N1         -8.3872   -5.7158   -2.0545 N.4       1 <0>        -0.5033
     19 C14        -8.7020   -5.9531   -3.4696 C.3       1 <0>        -0.0507
     20 C15        -9.0281   -4.6219   -4.1497 C.3       1 <0>         0.1732
     21 H2         -8.1685   -3.9558   -4.0755 H         1 <0>         0.1577
     22 C16        -9.3510   -4.8654   -5.6015 C.2       1 <0>         0.0142
     23 C17        -8.4860   -4.7787   -6.6297 C.2       1 <0>        -0.2178
     24 C18        -9.1829   -5.0809   -7.8146 C.2       1 <0>         0.0882
     25 N2        -10.4216   -5.3387   -7.4999 N.2       1 <0>        -0.2486
     26 O4        -10.5495   -5.2122   -6.0952 O.3       1 <0>        -0.0533
     27 Br1        -8.4508   -5.1077   -9.5579 Br        1 <0>         0.0898
     28 O5        -10.1533   -4.0211   -3.5057 O.3       1 <0>        -0.5361
     29 H3          1.0039    1.9031    0.0027 H         1 <0>         0.0861
     30 H4         -0.5459    1.8868   -0.8726 H         1 <0>         0.0685
     31 H5         -0.5289    1.8773    0.9072 H         1 <0>         0.0691
     32 H6          0.5123   -0.3556   -0.8948 H         1 <0>         0.0730
     33 H7          0.5293   -0.3651    0.8851 H         1 <0>         0.0734
     34 H8         -3.4091   -2.1027    0.9134 H         1 <0>         0.1120
     35 H9         -3.4261   -2.0931   -0.8665 H         1 <0>         0.1103
     36 H10        -5.1820   -2.7919    0.0270 H         1 <0>         0.1394
     37 H11        -7.2945   -4.0552    0.0391 H         1 <0>         0.1277
     38 H12        -5.1120   -7.7196    0.0200 H         1 <0>         0.1392
     39 H13        -2.9952   -6.4637   -0.0036 H         1 <0>         0.1436
     40 H14        -7.4789   -7.6859    0.5498 H         1 <0>         0.1230
     41 H15        -8.3897   -6.1567    0.5581 H         1 <0>         0.0987
     42 H16        -9.6392   -8.0669   -2.4213 H         1 <0>         0.0820
     43 H17        -9.0875   -8.8306   -0.9111 H         1 <0>         0.1106
     44 H18       -10.1202   -7.3821   -0.8503 H         1 <0>         0.0856
     45 H19        -9.1818   -5.2916   -1.5998 H         1 <0>         0.4306
     46 H20        -7.8437   -6.4114   -3.9609 H         1 <0>         0.1524
     47 H21        -9.5616   -6.6192   -3.5439 H         1 <0>         0.1478
     48 H22        -7.4395   -4.5216   -6.5578 H         1 <0>         0.1795
     49 H23       -10.9560   -4.5596   -3.5331 H         1 <0>         0.4020
     50 H24        -7.5915   -5.0992   -1.9858 H         1 <0>         0.4279
@<TRIPOS>BOND
     1    1    2 1
     2    1   29 1
     3    1   30 1
     4    1   31 1
     5    2    3 1
     6    2   32 1
     7    2   33 1
     8    3    4 1
     9    4    5 2
    10    4    6 1
    11    6    7 1
    12    6   34 1
    13    6   35 1
    14    7    8 1
    15    8   13 ar
    16    8    9 ar
    17    9   10 ar
    18    9   36 1
    19   10   11 ar
    20   10   37 1
    21   11   12 ar
    22   11   14 1
    23   12   13 ar
    24   12   38 1
    25   13   39 1
    26   14   15 1
    27   14   40 1
    28   14   41 1
    29   15   16 1
    30   15   17 1
    31   15   18 1
    32   17   42 1
    33   17   43 1
    34   17   44 1
    35   18   19 1
    36   18   45 1
    37   18   50 1
    38   19   20 1
    39   19   46 1
    40   19   47 1
    41   20   21 1
    42   20   22 1
    43   20   28 1
    44   22   26 1
    45   22   23 2
    46   23   24 1
    47   23   48 1
    48   24   25 2
    49   24   27 1
    50   25   26 1
    51   28   49 1
@<TRIPOS>MOLECULE
CHEMBL1078496
   65    68     0     0     0
SMALL
USER_CHARGES

@<TRIPOS>ATOM
      1 C1         -2.4966  -10.4311    6.0183 C.2       1 <0>        -0.1991
      2 C2         -1.4305  -11.2795    6.3771 C.2       1 <0>        -0.1989
      3 C3         -0.2937  -10.7129    5.9242 C.2       1 <0>        -0.0189
      4 N1         -0.6189   -9.5457    5.2990 N.pl3     1 <0>        -0.4516
      5 C4         -1.9706   -9.3783    5.3599 C.2       1 <0>        -0.0177
      6 C5          0.3278   -8.6236    4.6667 C.3       1 <0>         0.1120
      7 C6          0.5139   -9.0112    3.1984 C.3       1 <0>        -0.0976
      8 C7          1.4876   -8.0626    2.5480 C.ar      1 <0>        -0.0889
      9 C8          1.0268   -6.9032    1.9493 C.ar      1 <0>        -0.0784
     10 C9          1.9139   -6.0273    1.3497 C.ar      1 <0>        -0.1196
     11 C10         3.2655   -6.3050    1.3449 C.ar      1 <0>        -0.0849
     12 C11         3.7370   -7.4724    1.9473 C.ar      1 <0>        -0.1419
     13 C12         2.8368   -8.3492    2.5556 C.ar      1 <0>        -0.0489
     14 C13         5.1835   -7.7765    1.9456 C.2       1 <0>         0.5665
     15 O1          5.5912   -8.7941    2.4710 O.2       1 <0>        -0.5136
     16 N2          6.0503   -6.9257    1.3614 N.am      1 <0>        -0.6741
     17 C14         7.4260   -7.1632    1.4436 C.ar      1 <0>         0.1657
     18 C15         8.3112   -6.0980    1.5474 C.ar      1 <0>        -0.1419
     19 C16         9.6691   -6.3360    1.6288 C.ar      1 <0>        -0.0873
     20 C17        10.1478   -7.6332    1.6066 C.ar      1 <0>        -0.1265
     21 C18         9.2692   -8.6960    1.5029 C.ar      1 <0>        -0.0873
     22 C19         7.9097   -8.4651    1.4273 C.ar      1 <0>        -0.1178
     23 C20        11.6303   -7.8891    1.6952 C.3       1 <0>        -0.0970
     24 C21        12.0357   -8.0359    3.1632 C.3       1 <0>        -0.0079
     25 N3         13.4808   -8.2853    3.2495 N.4       1 <0>        -0.5053
     26 C22        13.8701   -8.4262    4.6590 C.3       1 <0>        -0.0428
     27 C23        15.3751   -8.6861    4.7489 C.3       1 <0>         0.1417
     28 H1         15.9154   -7.8501    4.3046 H         1 <0>         0.1338
     29 C24        15.7745   -8.8306    6.1948 C.ar      1 <0>        -0.2005
     30 C25        16.2529   -7.7389    6.9035 C.ar      1 <0>        -0.0549
     31 C26        16.6083   -7.9186    8.2314 C.ar      1 <0>        -0.1643
     32 C27        16.4748   -9.1711    8.8008 C.ar      1 <0>         0.1226
     33 N4         16.0165  -10.1869    8.0961 N.ar      1 <0>        -0.4748
     34 C28        15.6631  -10.0513    6.8327 C.ar      1 <0>         0.1174
     35 O2         15.6940   -9.8877    4.0443 O.3       1 <0>        -0.5461
     36 H2         -3.5431  -10.5959    6.2279 H         1 <0>         0.1358
     37 H3         -1.5093  -12.2120    6.9162 H         1 <0>         0.1353
     38 H4          0.7025  -11.1144    6.0373 H         1 <0>         0.1589
     39 H5         -2.5246   -8.5461    4.9512 H         1 <0>         0.1600
     40 H6         -0.0598   -7.6067    4.7277 H         1 <0>         0.0910
     41 H7          1.2871   -8.6783    5.1813 H         1 <0>         0.0896
     42 H8          0.9014  -10.0281    3.1373 H         1 <0>         0.0847
     43 H9         -0.4455   -8.9565    2.6838 H         1 <0>         0.0863
     44 H10        -0.0301   -6.6813    1.9500 H         1 <0>         0.1333
     45 H11         1.5478   -5.1243    0.8839 H         1 <0>         0.1359
     46 H12         3.9569   -5.6207    0.8758 H         1 <0>         0.1262
     47 H13         3.1957   -9.2523    3.0270 H         1 <0>         0.1382
     48 H14         5.7199   -6.1486    0.8840 H         1 <0>         0.4150
     49 H15         7.9380   -5.0847    1.5640 H         1 <0>         0.1326
     50 H16        10.3580   -5.5081    1.7095 H         1 <0>         0.1291
     51 H17         9.6463   -9.7079    1.4855 H         1 <0>         0.1287
     52 H18         7.2237   -9.2958    1.3508 H         1 <0>         0.1458
     53 H19        11.8735   -8.8057    1.1577 H         1 <0>         0.0965
     54 H20        12.1705   -7.0532    1.2509 H         1 <0>         0.0961
     55 H21        11.7925   -7.1193    3.7006 H         1 <0>         0.1334
     56 H22        11.4955   -8.8718    3.6075 H         1 <0>         0.1337
     57 H23        13.7059   -9.1338    2.7520 H         1 <0>         0.4327
     58 H24        13.6268   -7.5097    5.1964 H         1 <0>         0.1444
     59 H25        13.3298   -9.2622    5.1033 H         1 <0>         0.1377
     60 H26        16.3468   -6.7718    6.4321 H         1 <0>         0.1410
     61 H27        16.9849   -7.0906    8.8136 H         1 <0>         0.1472
     62 H28        16.7494   -9.3194    9.8347 H         1 <0>         0.1672
     63 H29        15.2869  -10.9053    6.2891 H         1 <0>         0.1531
     64 H30        15.2477  -10.6744    4.3863 H         1 <0>         0.3901
     65 H31        13.9809   -7.5115    2.8382 H         1 <0>         0.4293
@<TRIPOS>BOND
     1    1    5 2
     2    1    2 1
     3    1   36 1
     4    2    3 2
     5    2   37 1
     6    3    4 1
     7    3   38 1
     8    4    5 1
     9    4    6 1
    10    5   39 1
    11    6    7 1
    12    6   40 1
    13    6   41 1
    14    7    8 1
    15    7   42 1
    16    7   43 1
    17    8   13 ar
    18    8    9 ar
    19    9   10 ar
    20    9   44 1
    21   10   11 ar
    22   10   45 1
    23   11   12 ar
    24   11   46 1
    25   12   13 ar
    26   12   14 1
    27   13   47 1
    28   14   15 2
    29   14   16 am
    30   16   17 1
    31   16   48 1
    32   17   22 ar
    33   17   18 ar
    34   18   19 ar
    35   18   49 1
    36   19   20 ar
    37   19   50 1
    38   20   21 ar
    39   20   23 1
    40   21   22 ar
    41   21   51 1
    42   22   52 1
    43   23   24 1
    44   23   53 1
    45   23   54 1
    46   24   25 1
    47   24   55 1
    48   24   56 1
    49   25   26 1
    50   25   57 1
    51   25   65 1
    52   26   27 1
    53   26   58 1
    54   26   59 1
    55   27   28 1
    56   27   29 1
    57   27   35 1
    58   29   34 ar
    59   29   30 ar
    60   30   31 ar
    61   30   60 1
    62   31   32 ar
    63   31   61 1
    64   32   33 ar
    65   32   62 1
    66   33   34 ar
    67   34   63 1
    68   35   64 1
@<TRIPOS>MOLECULE
CHEMBL182708
   66    69     0     0     0
SMALL
USER_CHARGES

@<TRIPOS>ATOM
      1 C1          0.4617    1.0304    0.0143 C.3       1 <0>        -0.1845
      2 C2          0.5715   -0.4872   -0.1460 C.3       1 <0>         0.0274
      3 H1         -0.4216   -0.9320   -0.0836 H         1 <0>         0.1399
      4 C3          1.4554   -1.0549    0.9664 C.3       1 <0>        -0.0580
      5 C4          1.4645   -2.5595    0.8823 C.2       1 <0>        -0.2305
      6 C5          0.6712   -3.4020    1.5631 C.2       1 <0>         0.1121
      7 N1          0.9675   -4.6944    1.2278 N.pl3     1 <0>        -0.5696
      8 H2          0.5269   -5.4792    1.5896 H         1 <0>         0.4293
      9 C6          1.9853   -4.7151    0.2987 C.ar      1 <0>         0.1200
     10 C7          2.3360   -3.3795    0.0376 C.ar      1 <0>        -0.1032
     11 C8          3.3485   -3.0906   -0.8812 C.ar      1 <0>        -0.0881
     12 C9          3.9926   -4.1085   -1.5262 C.ar      1 <0>        -0.1078
     13 C10         3.6505   -5.4301   -1.2773 C.ar      1 <0>        -0.1033
     14 C11         2.6580   -5.7406   -0.3664 C.ar      1 <0>         0.0745
     15 O1          2.3285   -7.0385   -0.1313 O.3       1 <0>        -0.6605
     16 S1          1.2422   -7.5777   -1.0510 S.o2      1 <0>         2.5869
     17 O2          0.8706   -8.8251   -0.4808 O.2       1 <0>        -0.9175
     18 O3          0.2992   -6.5201   -1.1573 O.2       1 <0>        -0.9579
     19 C12         2.0685   -7.8406   -2.6444 C.3       1 <0>        -0.6935
     20 N2          1.1669   -0.7999   -1.4521 N.4       1 <0>        -0.5062
     21 C13         0.2602   -0.3608   -2.5212 C.3       1 <0>        -0.0478
     22 C14         0.8803   -0.6864   -3.8815 C.3       1 <0>         0.1371
     23 H3          1.0404   -1.7617   -3.9598 H         1 <0>         0.1301
     24 C15        -0.0499   -0.2359   -4.9783 C.ar      1 <0>        -0.1192
     25 C16        -0.0074    1.0719   -5.4264 C.ar      1 <0>        -0.1223
     26 C17        -0.8587    1.4891   -6.4328 C.ar      1 <0>        -0.0878
     27 C18        -1.7548    0.6003   -6.9941 C.ar      1 <0>        -0.1043
     28 C19        -1.8000   -0.7135   -6.5465 C.ar      1 <0>         0.1618
     29 C20        -0.9397   -1.1308   -5.5389 C.ar      1 <0>        -0.1323
     30 N3         -2.7061   -1.6159   -7.1127 N.am      1 <0>        -0.6754
     31 C21        -3.0340   -1.5133   -8.4159 C.2       1 <0>         0.5644
     32 O4         -2.4717   -0.6990   -9.1219 O.2       1 <0>        -0.5082
     33 C22        -4.0775   -2.3909   -8.9867 C.ar      1 <0>        -0.1466
     34 C23        -4.7292   -3.3231   -8.1775 C.ar      1 <0>        -0.0863
     35 C24        -5.7022   -4.1391   -8.7165 C.ar      1 <0>        -0.1260
     36 C25        -6.0324   -4.0351  -10.0561 C.ar      1 <0>        -0.0838
     37 C26        -5.3900   -3.1136  -10.8639 C.ar      1 <0>        -0.1238
     38 C27        -4.4196   -2.2872  -10.3361 C.ar      1 <0>        -0.0538
     39 O5          2.1314   -0.0079   -4.0094 O.3       1 <0>        -0.5458
     40 H4          1.4549    1.4752   -0.0482 H         1 <0>         0.0840
     41 H5         -0.1680    1.4348   -0.7782 H         1 <0>         0.0816
     42 H6          0.0200    1.2624    0.9834 H         1 <0>         0.1083
     43 H7          2.4718   -0.6784    0.8507 H         1 <0>         0.0975
     44 H8          1.0622   -0.7475    1.9354 H         1 <0>         0.1216
     45 H9         -0.0880   -3.1035    2.2708 H         1 <0>         0.1859
     46 H10         3.6211   -2.0650   -1.0813 H         1 <0>         0.1301
     47 H11         4.7745   -3.8824   -2.2360 H         1 <0>         0.1496
     48 H12         4.1688   -6.2236   -1.7951 H         1 <0>         0.1528
     49 H13         2.8817   -8.5554   -2.5184 H         1 <0>         0.1398
     50 H14         1.3506   -8.2303   -3.3660 H         1 <0>         0.1423
     51 H15         2.4698   -6.8938   -3.0061 H         1 <0>         0.1311
     52 H16         2.0503   -0.3208   -1.5424 H         1 <0>         0.4260
     53 H17        -0.6941   -0.8783   -2.4237 H         1 <0>         0.1437
     54 H18         0.1000    0.7146   -2.4430 H         1 <0>         0.1407
     55 H19         0.6921    1.7688   -4.9889 H         1 <0>         0.1248
     56 H20        -0.8233    2.5111   -6.7801 H         1 <0>         0.1359
     57 H21        -2.4198    0.9269   -7.7799 H         1 <0>         0.1421
     58 H22        -0.9695   -2.1530   -5.1914 H         1 <0>         0.1305
     59 H23        -3.0984   -2.3157   -6.5675 H         1 <0>         0.4128
     60 H24        -4.4721   -3.4055   -7.1318 H         1 <0>         0.1233
     61 H25        -6.2069   -4.8610   -8.0916 H         1 <0>         0.1328
     62 H26        -6.7948   -4.6764  -10.4732 H         1 <0>         0.1329
     63 H27        -5.6522   -3.0378  -11.9088 H         1 <0>         0.1357
     64 H28        -3.9225   -1.5648  -10.9665 H         1 <0>         0.1389
     65 H29         2.0646    0.9549   -3.9494 H         1 <0>         0.3882
     66 H30         1.3152   -1.7953   -1.5245 H         1 <0>         0.4277
@<TRIPOS>BOND
     1    1    2 1
     2    1   40 1
     3    1   41 1
     4    1   42 1
     5    2    3 1
     6    2    4 1
     7    2   20 1
     8    4    5 1
     9    4   43 1
    10    4   44 1
    11    5   10 1
    12    5    6 2
    13    6    7 1
    14    6   45 1
    15    7    8 1
    16    7    9 1
    17    9   14 ar
    18    9   10 ar
    19   10   11 ar
    20   11   12 ar
    21   11   46 1
    22   12   13 ar
    23   12   47 1
    24   13   14 ar
    25   13   48 1
    26   14   15 1
    27   15   16 1
    28   16   17 2
    29   16   18 2
    30   16   19 1
    31   19   49 1
    32   19   50 1
    33   19   51 1
    34   20   21 1
    35   20   52 1
    36   20   66 1
    37   21   22 1
    38   21   53 1
    39   21   54 1
    40   22   23 1
    41   22   24 1
    42   22   39 1
    43   24   29 ar
    44   24   25 ar
    45   25   26 ar
    46   25   55 1
    47   26   27 ar
    48   26   56 1
    49   27   28 ar
    50   27   57 1
    51   28   29 ar
    52   28   30 1
    53   29   58 1
    54   30   31 am
    55   30   59 1
    56   31   32 2
    57   31   33 1
    58   33   38 ar
    59   33   34 ar
    60   34   35 ar
    61   34   60 1
    62   35   36 ar
    63   35   61 1
    64   36   37 ar
    65   36   62 1
    66   37   38 ar
    67   37   63 1
    68   38   64 1
    69   39   65 1
@<TRIPOS>MOLECULE
CHEMBL299175
   49    51     0     0     0
SMALL
USER_CHARGES

@<TRIPOS>ATOM
      1 C1         -0.0173    1.4248    0.0099 C.3       1 <0>         0.0214
      2 O1          0.0021   -0.0041    0.0020 O.3       1 <0>        -0.2943
      3 C2          0.6062   -0.6075   -1.0565 C.ar      1 <0>         0.1641
      4 C3          1.1731    0.1601   -2.0626 C.ar      1 <0>        -0.2213
      5 C4          1.7874   -0.4523   -3.1388 C.ar      1 <0>        -0.0509
      6 C5          1.8393   -1.8314   -3.2169 C.ar      1 <0>        -0.2589
      7 C6          1.2749   -2.6062   -2.2150 C.ar      1 <0>         0.1628
      8 C7          0.6613   -1.9944   -1.1284 C.ar      1 <0>         0.0415
      9 O2          0.1111   -2.7512   -0.1402 O.3       1 <0>        -0.3122
     10 C8         -1.2598   -3.1236   -0.2953 C.3       1 <0>         0.0344
     11 O3          1.3261   -3.9630   -2.2930 O.3       1 <0>        -0.2937
     12 C9          1.9770   -4.5231   -3.4352 C.3       1 <0>         0.0226
     13 C10         2.4017    0.3858   -4.2302 C.3       1 <0>        -0.1005
     14 C11         3.8642    0.6769   -3.8877 C.3       1 <0>         0.0913
     15 C12         4.4303    1.6363   -4.9015 C.ar      1 <0>        -0.1220
     16 C13         3.6379    2.6934   -5.3258 C.ar      1 <0>        -0.1065
     17 C14         4.1184    3.5995   -6.2539 C.ar      1 <0>         0.0986
     18 C15         5.4050    3.4491   -6.7636 C.ar      1 <0>         0.1146
     19 C16         6.1913    2.3933   -6.3380 C.ar      1 <0>        -0.1184
     20 C17         5.7038    1.4870   -5.4086 C.ar      1 <0>        -0.0786
     21 C18         6.5917    0.3466   -4.9793 C.3       1 <0>        -0.1064
     22 C19         6.0465   -0.2790   -3.6949 C.3       1 <0>        -0.0039
     23 N1          4.6197   -0.5790   -3.8880 N.4       1 <0>        -0.5061
     24 O4          5.8865    4.3355   -7.6757 O.3       1 <0>        -0.4818
     25 O5          3.3372    4.6333   -6.6664 O.3       1 <0>        -0.4808
     26 H1          1.0053    1.8021    0.0021 H         1 <0>         0.0596
     27 H2         -0.5445    1.7859   -0.8732 H         1 <0>         0.0614
     28 H3         -0.5275    1.7763    0.9067 H         1 <0>         0.1113
     29 H4          1.1343    1.2379   -2.0054 H         1 <0>         0.1422
     30 H5          2.3199   -2.3061   -4.0596 H         1 <0>         0.1338
     31 H6         -1.3771   -3.7054   -1.2095 H         1 <0>         0.0480
     32 H7         -1.5724   -3.7233    0.5596 H         1 <0>         0.1009
     33 H8         -1.8756   -2.2262   -0.3542 H         1 <0>         0.0484
     34 H9          1.4660   -4.1967   -4.3410 H         1 <0>         0.0614
     35 H10         3.0141   -4.1888   -3.4626 H         1 <0>         0.0529
     36 H11         1.9474   -5.6109   -3.3732 H         1 <0>         0.1118
     37 H12         2.3506   -0.1544   -5.1756 H         1 <0>         0.1053
     38 H13         1.8554    1.3249   -4.3183 H         1 <0>         0.1259
     39 H14         3.9182    1.1285   -2.8971 H         1 <0>         0.1509
     40 H15         2.6400    2.8092   -4.9293 H         1 <0>         0.1465
     41 H16         7.1899    2.2742   -6.7319 H         1 <0>         0.1471
     42 H17         6.6193   -0.4072   -5.7662 H         1 <0>         0.1078
     43 H18         7.6001    0.7199   -4.8009 H         1 <0>         0.1269
     44 H19         6.5881   -1.1997   -3.4778 H         1 <0>         0.1435
     45 H20         6.1642    0.4215   -2.8681 H         1 <0>         0.1366
     46 H21         4.2942   -1.1691   -3.1371 H         1 <0>         0.4340
     47 H22         6.3436    5.0928   -7.2849 H         1 <0>         0.4014
     48 H23         3.4293    5.4337   -6.1316 H         1 <0>         0.3994
     49 H24         4.4903   -1.0508   -4.7705 H         1 <0>         0.4278
@<TRIPOS>BOND
     1    1    2 1
     2    1   26 1
     3    1   27 1
     4    1   28 1
     5    2    3 1
     6    3    8 ar
     7    3    4 ar
     8    4    5 ar
     9    4   29 1
    10    5    6 ar
    11    5   13 1
    12    6    7 ar
    13    6   30 1
    14    7    8 ar
    15    7   11 1
    16    8    9 1
    17    9   10 1
    18   10   31 1
    19   10   32 1
    20   10   33 1
    21   11   12 1
    22   12   34 1
    23   12   35 1
    24   12   36 1
    25   13   14 1
    26   13   37 1
    27   13   38 1
    28   14   23 1
    29   14   15 1
    30   14   39 1
    31   15   20 ar
    32   15   16 ar
    33   16   17 ar
    34   16   40 1
    35   17   18 ar
    36   17   25 1
    37   18   19 ar
    38   18   24 1
    39   19   20 ar
    40   19   41 1
    41   20   21 1
    42   21   22 1
    43   21   42 1
    44   21   43 1
    45   22   23 1
    46   22   44 1
    47   22   45 1
    48   23   46 1
    49   23   49 1
    50   24   47 1
    51   25   48 1
@<TRIPOS>MOLECULE
CHEMBL299175
   48    50     0     0     0
SMALL
USER_CHARGES

@<TRIPOS>ATOM
      1 C1         -0.0173    1.4248    0.0099 C.3       1 <0>         0.0248
      2 O1          0.0021   -0.0041    0.0020 O.3       1 <0>        -0.3024
      3 C2         -1.2011   -0.6379    0.0101 C.ar      1 <0>         0.1516
      4 C3         -2.3748    0.1005    0.0195 C.ar      1 <0>        -0.2326
      5 C4         -3.5982   -0.5428    0.0277 C.ar      1 <0>        -0.0109
      6 C5         -3.6572   -1.9238    0.0266 C.ar      1 <0>        -0.2257
      7 C6         -2.4882   -2.6696    0.0172 C.ar      1 <0>         0.1522
      8 C7         -1.2561   -2.0266    0.0032 C.ar      1 <0>         0.0238
      9 O2         -0.1065   -2.7549   -0.0117 O.3       1 <0>        -0.3130
     10 C8          0.4536   -3.1089    1.2544 C.3       1 <0>         0.0352
     11 O3         -2.5472   -4.0282    0.0166 O.3       1 <0>        -0.3024
     12 C9         -3.8474   -4.6211    0.0259 C.3       1 <0>         0.0241
     13 C10        -4.8712    0.2637    0.0384 C.3       1 <0>        -0.0755
     14 C11        -5.3128    0.5387   -1.4005 C.3       1 <0>         0.1371
     15 C12        -6.4995    1.4668   -1.3876 C.ar      1 <0>        -0.0674
     16 C13        -6.4870    2.5392   -0.5068 C.ar      1 <0>        -0.1267
     17 C14        -7.5518    3.4207   -0.4619 C.ar      1 <0>         0.0784
     18 C15        -8.6418    3.2296   -1.3064 C.ar      1 <0>         0.0841
     19 C16        -8.6507    2.1581   -2.1812 C.ar      1 <0>        -0.1321
     20 C17        -7.5810    1.2756   -2.2208 C.ar      1 <0>        -0.0554
     21 C18        -7.6429    0.1171   -3.1832 C.3       1 <0>        -0.0777
     22 C19        -6.2474   -0.4768   -3.3762 C.3       1 <0>         0.0534
     23 N1         -5.6594   -0.7288   -2.0510 N.3       1 <0>        -0.6790
     24 O4         -9.6925    4.0923   -1.2718 O.3       1 <0>        -0.4876
     25 O5         -7.5342    4.4694    0.4037 O.3       1 <0>        -0.4868
     26 H1          1.0053    1.8021    0.0021 H         1 <0>         0.1035
     27 H2         -0.5445    1.7859   -0.8732 H         1 <0>         0.0571
     28 H3         -0.5275    1.7763    0.9067 H         1 <0>         0.0574
     29 H4         -2.3329    1.1797    0.0207 H         1 <0>         0.1337
     30 H5         -4.6151   -2.4227    0.0334 H         1 <0>         0.1421
     31 H6         -0.2648   -3.7070    1.8151 H         1 <0>         0.0442
     32 H7          1.3650   -3.6864    1.0998 H         1 <0>         0.0926
     33 H8          0.6878   -2.2033    1.8141 H         1 <0>         0.0436
     34 H9         -4.3978   -4.3036   -0.8597 H         1 <0>         0.0604
     35 H10        -3.7517   -5.7069    0.0243 H         1 <0>         0.1027
     36 H11        -4.3845   -4.3050    0.9202 H         1 <0>         0.0578
     37 H12        -5.6506   -0.2944    0.5572 H         1 <0>         0.0906
     38 H13        -4.6980    1.2092    0.5523 H         1 <0>         0.0845
     39 H14        -4.4940    1.0100   -1.9442 H         1 <0>         0.0558
     40 H15        -5.6404    2.6865    0.1474 H         1 <0>         0.1352
     41 H16        -9.4951    2.0079   -2.8375 H         1 <0>         0.1339
     42 H17        -8.3100   -0.6480   -2.7860 H         1 <0>         0.0880
     43 H18        -8.0242    0.4644   -4.1434 H         1 <0>         0.0801
     44 H19        -6.3213   -1.4138   -3.9282 H         1 <0>         0.0837
     45 H20        -5.6227    0.2271   -3.9260 H         1 <0>         0.0383
     46 H21        -4.8530   -1.3312   -2.1218 H         1 <0>         0.3503
     47 H22        -9.6067    4.8410   -1.8778 H         1 <0>         0.3878
     48 H23        -7.1402    5.2738    0.0392 H         1 <0>         0.3869
@<TRIPOS>BOND
     1    1    2 1
     2    1   26 1
     3    1   27 1
     4    1   28 1
     5    2    3 1
     6    3    8 ar
     7    3    4 ar
     8    4    5 ar
     9    4   29 1
    10    5    6 ar
    11    5   13 1
    12    6    7 ar
    13    6   30 1
    14    7    8 ar
    15    7   11 1
    16    8    9 1
    17    9   10 1
    18   10   31 1
    19   10   32 1
    20   10   33 1
    21   11   12 1
    22   12   34 1
    23   12   35 1
    24   12   36 1
    25   13   14 1
    26   13   37 1
    27   13   38 1
    28   14   23 1
    29   14   15 1
    30   14   39 1
    31   15   20 ar
    32   15   16 ar
    33   16   17 ar
    34   16   40 1
    35   17   18 ar
    36   17   25 1
    37   18   19 ar
    38   18   24 1
    39   19   20 ar
    40   19   41 1
    41   20   21 1
    42   21   22 1
    43   21   42 1
    44   21   43 1
    45   22   23 1
    46   22   44 1
    47   22   45 1
    48   23   46 1
    49   24   47 1
    50   25   48 1
@<TRIPOS>MOLECULE
CHEMBL299175
   49    51     0     0     0
SMALL
USER_CHARGES

@<TRIPOS>ATOM
      1 C1         -0.0173    1.4248    0.0099 C.3       1 <0>         0.0227
      2 O1          0.0021   -0.0041    0.0020 O.3       1 <0>        -0.2936
      3 C2          0.6062   -0.6075   -1.0565 C.ar      1 <0>         0.1626
      4 C3          1.1731    0.1601   -2.0626 C.ar      1 <0>        -0.2591
      5 C4          1.7874   -0.4523   -3.1388 C.ar      1 <0>        -0.0517
      6 C5          1.8393   -1.8314   -3.2169 C.ar      1 <0>        -0.2211
      7 C6          1.2749   -2.6062   -2.2150 C.ar      1 <0>         0.1643
      8 C7          0.6613   -1.9944   -1.1284 C.ar      1 <0>         0.0417
      9 O2          0.1111   -2.7512   -0.1402 O.3       1 <0>        -0.3121
     10 C8         -1.2598   -3.1236   -0.2953 C.3       1 <0>         0.0345
     11 O3          1.3261   -3.9630   -2.2930 O.3       1 <0>        -0.2943
     12 C9          1.9770   -4.5231   -3.4352 C.3       1 <0>         0.0212
     13 C10         2.4017    0.3858   -4.2302 C.3       1 <0>        -0.0994
     14 C11         3.8642    0.6769   -3.8877 C.3       1 <0>         0.0905
     15 C12         4.5146    1.3843   -5.0475 C.ar      1 <0>        -0.1214
     16 C13         4.2199    0.9545   -6.3335 C.ar      1 <0>        -0.1064
     17 C14         4.7964    1.5741   -7.4276 C.ar      1 <0>         0.0987
     18 C15         5.6778    2.6343   -7.2358 C.ar      1 <0>         0.1143
     19 C16         5.9682    3.0599   -5.9517 C.ar      1 <0>        -0.1182
     20 C17         5.3861    2.4361   -4.8586 C.ar      1 <0>        -0.0792
     21 C18         5.7243    2.9378   -3.4777 C.3       1 <0>        -0.1060
     22 C19         5.3185    1.8961   -2.4344 C.3       1 <0>        -0.0043
     23 N1          3.9220    1.5053   -2.6801 N.4       1 <0>        -0.5056
     24 O4          6.2508    3.2486   -8.3052 O.3       1 <0>        -0.4812
     25 O5          4.5029    1.1495   -8.6858 O.3       1 <0>        -0.4804
     26 H1          1.0053    1.8021    0.0021 H         1 <0>         0.0528
     27 H2         -0.5445    1.7859   -0.8732 H         1 <0>         0.0611
     28 H3         -0.5275    1.7763    0.9067 H         1 <0>         0.1117
     29 H4          1.1343    1.2379   -2.0054 H         1 <0>         0.1336
     30 H5          2.3199   -2.3061   -4.0596 H         1 <0>         0.1425
     31 H6         -1.3771   -3.7054   -1.2095 H         1 <0>         0.0485
     32 H7         -1.5724   -3.7233    0.5596 H         1 <0>         0.1009
     33 H8         -1.8756   -2.2262   -0.3542 H         1 <0>         0.0478
     34 H9          1.4660   -4.1967   -4.3410 H         1 <0>         0.0614
     35 H10         3.0141   -4.1888   -3.4626 H         1 <0>         0.0602
     36 H11         1.9474   -5.6109   -3.3732 H         1 <0>         0.1116
     37 H12         2.3506   -0.1544   -5.1756 H         1 <0>         0.1256
     38 H13         1.8554    1.3249   -4.3183 H         1 <0>         0.1047
     39 H14         4.3841   -0.2633   -3.7037 H         1 <0>         0.1512
     40 H15         3.5363    0.1315   -6.4811 H         1 <0>         0.1466
     41 H16         6.6521    3.8818   -5.8000 H         1 <0>         0.1472
     42 H17         6.7971    3.1189   -3.4106 H         1 <0>         0.1272
     43 H18         5.1883    3.8678   -3.2887 H         1 <0>         0.1074
     44 H19         5.9633    1.0215   -2.5204 H         1 <0>         0.1369
     45 H20         5.4087    2.3237   -1.4359 H         1 <0>         0.1437
     46 H21         3.3580    2.3318   -2.8102 H         1 <0>         0.4270
     47 H22         5.7410    3.9943   -8.6503 H         1 <0>         0.4008
     48 H23         3.7424    1.5948   -9.0838 H         1 <0>         0.3990
     49 H24         3.5752    0.9787   -1.8924 H         1 <0>         0.4341
@<TRIPOS>BOND
     1    1    2 1
     2    1   26 1
     3    1   27 1
     4    1   28 1
     5    2    3 1
     6    3    8 ar
     7    3    4 ar
     8    4    5 ar
     9    4   29 1
    10    5    6 ar
    11    5   13 1
    12    6    7 ar
    13    6   30 1
    14    7    8 ar
    15    7   11 1
    16    8    9 1
    17    9   10 1
    18   10   31 1
    19   10   32 1
    20   10   33 1
    21   11   12 1
    22   12   34 1
    23   12   35 1
    24   12   36 1
    25   13   14 1
    26   13   37 1
    27   13   38 1
    28   14   23 1
    29   14   15 1
    30   14   39 1
    31   15   20 ar
    32   15   16 ar
    33   16   17 ar
    34   16   40 1
    35   17   18 ar
    36   17   25 1
    37   18   19 ar
    38   18   24 1
    39   19   20 ar
    40   19   41 1
    41   20   21 1
    42   21   22 1
    43   21   42 1
    44   21   43 1
    45   22   23 1
    46   22   44 1
    47   22   45 1
    48   23   46 1
    49   23   49 1
    50   24   47 1
    51   25   48 1
@<TRIPOS>MOLECULE
CHEMBL299175
   48    50     0     0     0
SMALL
USER_CHARGES

@<TRIPOS>ATOM
      1 C1         -0.0173    1.4248    0.0099 C.3       1 <0>         0.0256
      2 O1          0.0021   -0.0041    0.0020 O.3       1 <0>        -0.3036
      3 C2         -1.2011   -0.6379    0.0101 C.ar      1 <0>         0.1502
      4 C3         -2.3748    0.1005    0.0195 C.ar      1 <0>        -0.2074
      5 C4         -3.5982   -0.5428    0.0277 C.ar      1 <0>         0.0035
      6 C5         -3.6572   -1.9238    0.0266 C.ar      1 <0>        -0.2323
      7 C6         -2.4882   -2.6696    0.0172 C.ar      1 <0>         0.1498
      8 C7         -1.2561   -2.0266    0.0032 C.ar      1 <0>         0.0235
      9 O2         -0.1065   -2.7549   -0.0117 O.3       1 <0>        -0.3131
     10 C8          0.4536   -3.1089    1.2544 C.3       1 <0>         0.0355
     11 O3         -2.5472   -4.0282    0.0166 O.3       1 <0>        -0.3036
     12 C9         -3.8474   -4.6211    0.0259 C.3       1 <0>         0.0253
     13 C10        -4.8712    0.2637    0.0384 C.3       1 <0>        -0.0767
     14 C11        -5.3128    0.5387   -1.4005 C.3       1 <0>         0.1353
     15 C12        -6.6588    1.2152   -1.3868 C.ar      1 <0>        -0.1063
     16 C13        -7.6205    0.7499   -0.5010 C.ar      1 <0>        -0.1236
     17 C14        -8.8723    1.3362   -0.4551 C.ar      1 <0>         0.0801
     18 C15        -9.1677    2.3994   -1.3037 C.ar      1 <0>         0.0840
     19 C16        -8.2053    2.8612   -2.1835 C.ar      1 <0>        -0.1292
     20 C17        -6.9505    2.2709   -2.2240 C.ar      1 <0>        -0.0676
     21 C18        -5.9323    2.8173   -3.1920 C.3       1 <0>        -0.1202
     22 C19        -4.7997    1.8083   -3.3836 C.3       1 <0>         0.0551
     23 N1         -4.3168    1.3905   -2.0579 N.3       1 <0>        -0.6657
     24 O4        -10.3965    2.9810   -1.2682 O.3       1 <0>        -0.4874
     25 O5         -9.8107    0.8758    0.4149 O.3       1 <0>        -0.4870
     26 H1          1.0053    1.8021    0.0021 H         1 <0>         0.1009
     27 H2         -0.5445    1.7859   -0.8732 H         1 <0>         0.0604
     28 H3         -0.5275    1.7763    0.9067 H         1 <0>         0.0549
     29 H4         -2.3329    1.1797    0.0207 H         1 <0>         0.1332
     30 H5         -4.6151   -2.4227    0.0334 H         1 <0>         0.1320
     31 H6         -0.2648   -3.7070    1.8151 H         1 <0>         0.0431
     32 H7          1.3650   -3.6864    1.0998 H         1 <0>         0.0916
     33 H8          0.6878   -2.2033    1.8141 H         1 <0>         0.0432
     34 H9         -4.3978   -4.3036   -0.8597 H         1 <0>         0.0576
     35 H10        -3.7517   -5.7069    0.0243 H         1 <0>         0.1024
     36 H11        -4.3845   -4.3050    0.9202 H         1 <0>         0.0562
     37 H12        -5.6506   -0.2944    0.5572 H         1 <0>         0.0855
     38 H13        -4.6980    1.2092    0.5523 H         1 <0>         0.0789
     39 H14        -5.3907   -0.4055   -1.9395 H         1 <0>         0.0991
     40 H15        -7.3901   -0.0754    0.1564 H         1 <0>         0.1364
     41 H16        -8.4322    3.6857   -2.8430 H         1 <0>         0.1333
     42 H17        -6.4121    3.0092   -4.1518 H         1 <0>         0.0841
     43 H18        -5.5244    3.7491   -2.8004 H         1 <0>         0.0807
     44 H19        -5.1709    0.9402   -3.9284 H         1 <0>         0.0782
     45 H20        -3.9858    2.2729   -3.9402 H         1 <0>         0.0871
     46 H21        -4.0917    2.1909   -1.4863 H         1 <0>         0.3410
     47 H22       -10.4652    3.7177   -0.6455 H         1 <0>         0.3883
     48 H23        -9.7936    1.3107    1.2784 H         1 <0>         0.3878
@<TRIPOS>BOND
     1    1    2 1
     2    1   26 1
     3    1   27 1
     4    1   28 1
     5    2    3 1
     6    3    8 ar
     7    3    4 ar
     8    4    5 ar
     9    4   29 1
    10    5    6 ar
    11    5   13 1
    12    6    7 ar
    13    6   30 1
    14    7    8 ar
    15    7   11 1
    16    8    9 1
    17    9   10 1
    18   10   31 1
    19   10   32 1
    20   10   33 1
    21   11   12 1
    22   12   34 1
    23   12   35 1
    24   12   36 1
    25   13   14 1
    26   13   37 1
    27   13   38 1
    28   14   23 1
    29   14   15 1
    30   14   39 1
    31   15   20 ar
    32   15   16 ar
    33   16   17 ar
    34   16   40 1
    35   17   18 ar
    36   17   25 1
    37   18   19 ar
    38   18   24 1
    39   19   20 ar
    40   19   41 1
    41   20   21 1
    42   21   22 1
    43   21   42 1
    44   21   43 1
    45   22   23 1
    46   22   44 1
    47   22   45 1
    48   23   46 1
    49   24   47 1
    50   25   48 1
@<TRIPOS>MOLECULE
CHEMBL236042
   74    77     0     0     0
SMALL
USER_CHARGES

@<TRIPOS>ATOM
      1 C1         -0.0187    1.5258    0.0104 C.3       1 <0>        -0.1840
      2 C2          0.0021   -0.0041    0.0020 C.3       1 <0>         0.0288
      3 H1          0.5123   -0.3556   -0.8948 H         1 <0>         0.1406
      4 C3         -1.4333   -0.5336    0.0129 C.3       1 <0>        -0.0942
      5 C4         -1.4159   -2.0348   -0.1192 C.ar      1 <0>        -0.1477
      6 C5         -1.4502   -2.6151   -1.3811 C.ar      1 <0>        -0.0845
      7 C6         -1.4355   -3.9842   -1.5247 C.ar      1 <0>        -0.1100
      8 C7         -1.3855   -4.7979   -0.3960 C.ar      1 <0>         0.1196
      9 C8         -1.3504   -4.2071    0.8821 C.ar      1 <0>        -0.1107
     10 C9         -1.3611   -2.8112    1.0014 C.ar      1 <0>        -0.0781
     11 C10        -1.3033   -5.2632    1.8240 C.2       1 <0>        -0.1104
     12 C11        -1.3101   -6.4336    1.1340 C.2       1 <0>         0.0336
     13 N1         -1.3601   -6.1611   -0.2194 N.pl3     1 <0>        -0.5732
     14 H2         -1.3753   -6.8228   -0.9285 H         1 <0>         0.4227
     15 C12        -1.2699   -7.7763    1.7324 C.2       1 <0>         0.5786
     16 O1         -1.2263   -7.9023    2.9415 O.2       1 <0>        -0.5085
     17 N2         -1.2814   -8.8673    0.9411 N.am      1 <0>        -0.7259
     18 C13        -1.2413  -10.2049    1.5372 C.3       1 <0>         0.1226
     19 C14        -1.2643  -11.2585    0.4280 C.3       1 <0>        -0.0901
     20 C15        -1.2231  -12.6345    1.0412 C.ar      1 <0>        -0.0496
     21 C16        -0.0069  -13.2455    1.2861 C.ar      1 <0>        -0.1514
     22 C17         0.0343  -14.5077    1.8485 C.ar      1 <0>        -0.0754
     23 C18        -1.1402  -15.1621    2.1669 C.ar      1 <0>        -0.2063
     24 C19        -2.3613  -14.5514    1.9222 C.ar      1 <0>         0.1317
     25 C20        -2.3999  -13.2819    1.3633 C.ar      1 <0>        -0.1465
     26 O2         -3.5179  -15.1929    2.2345 O.3       1 <0>        -0.3172
     27 C21        -3.4021  -16.4947    2.8125 C.3       1 <0>         0.0257
     28 N3          0.7126   -0.4907    1.1921 N.4       1 <0>        -0.5054
     29 C22         2.1220   -0.0825    1.1220 C.3       1 <0>        -0.0460
     30 C23         2.8620   -0.5894    2.3615 C.3       1 <0>         0.1376
     31 H3          2.8002   -1.6769    2.4022 H         1 <0>         0.1317
     32 C24         4.3078   -0.1706    2.2896 C.ar      1 <0>        -0.1525
     33 C25         4.6878    1.0793    2.7430 C.ar      1 <0>        -0.0895
     34 C26         6.0123    1.4657    2.6777 C.ar      1 <0>        -0.1373
     35 C27         6.9620    0.5982    2.1572 C.ar      1 <0>         0.1324
     36 C28         6.5783   -0.6552    1.7036 C.ar      1 <0>        -0.1103
     37 C29         5.2530   -1.0389    1.7758 C.ar      1 <0>        -0.0622
     38 C30         7.6071   -1.5999    1.1376 C.3       1 <0>         0.1177
     39 O3          6.9703   -2.8165    0.7422 O.3       1 <0>        -0.5750
     40 O4          8.2657    0.9761    2.0915 O.3       1 <0>        -0.4945
     41 O5          2.2630   -0.0341    3.5341 O.3       1 <0>        -0.5463
     42 H4          1.0039    1.9031    0.0027 H         1 <0>         0.0813
     43 H5         -0.5459    1.8868   -0.8726 H         1 <0>         0.1081
     44 H6         -0.5289    1.8773    0.9072 H         1 <0>         0.0839
     45 H7         -1.9156   -0.2570    0.9504 H         1 <0>         0.0976
     46 H8         -1.9862   -0.1019   -0.8214 H         1 <0>         0.1212
     47 H9         -1.4890   -1.9859   -2.2581 H         1 <0>         0.1346
     48 H10        -1.4631   -4.4258   -2.5099 H         1 <0>         0.1321
     49 H11        -1.3300   -2.3510    1.9779 H         1 <0>         0.1257
     50 H12        -1.2683   -5.1574    2.8983 H         1 <0>         0.1619
     51 H13        -1.3162   -8.7668   -0.0230 H         1 <0>         0.3965
     52 H14        -0.3288  -10.3143    2.1233 H         1 <0>         0.0785
     53 H15        -2.1075  -10.3402    2.1848 H         1 <0>         0.0788
     54 H16        -2.1768  -11.1491   -0.1582 H         1 <0>         0.0828
     55 H17        -0.3981  -11.1232   -0.2196 H         1 <0>         0.0833
     56 H18         0.9122  -12.7360    1.0373 H         1 <0>         0.1241
     57 H19         0.9853  -14.9828    2.0388 H         1 <0>         0.1279
     58 H20        -1.1075  -16.1485    2.6056 H         1 <0>         0.1303
     59 H21        -3.3493  -12.8024    1.1762 H         1 <0>         0.1307
     60 H22        -4.3967  -16.8932    3.0127 H         1 <0>         0.1033
     61 H23        -2.8790  -17.1543    2.1201 H         1 <0>         0.0574
     62 H24        -2.8422  -16.4295    3.7454 H         1 <0>         0.0574
     63 H25         0.2896   -0.0986    2.0201 H         1 <0>         0.4279
     64 H26         2.5788   -0.5061    0.2276 H         1 <0>         0.1439
     65 H27         2.1837    1.0050    1.0814 H         1 <0>         0.1390
     66 H28         3.9483    1.7541    3.1480 H         1 <0>         0.1279
     67 H29         6.3085    2.4422    3.0312 H         1 <0>         0.1399
     68 H30         4.9544   -2.0163    1.4265 H         1 <0>         0.1415
     69 H31         8.0839   -1.1412    0.2713 H         1 <0>         0.0701
     70 H32         8.3602   -1.8138    1.8960 H         1 <0>         0.0649
     71 H33         7.5738   -3.4728    0.3679 H         1 <0>         0.3924
     72 H34         8.7804    0.7520    2.8789 H         1 <0>         0.4006
     73 H35         2.2821    0.9322    3.5656 H         1 <0>         0.3868
     74 H36         0.6554   -1.4974    1.2298 H         1 <0>         0.4271
@<TRIPOS>BOND
     1    1    2 1
     2    1   42 1
     3    1   43 1
     4    1   44 1
     5    2    3 1
     6    2    4 1
     7    2   28 1
     8    4    5 1
     9    4   45 1
    10    4   46 1
    11    5   10 ar
    12    5    6 ar
    13    6    7 ar
    14    6   47 1
    15    7    8 ar
    16    7   48 1
    17    8   13 1
    18    8    9 ar
    19    9   10 ar
    20    9   11 1
    21   10   49 1
    22   11   12 2
    23   11   50 1
    24   12   13 1
    25   12   15 1
    26   13   14 1
    27   15   16 2
    28   15   17 am
    29   17   18 1
    30   17   51 1
    31   18   19 1
    32   18   52 1
    33   18   53 1
    34   19   20 1
    35   19   54 1
    36   19   55 1
    37   20   25 ar
    38   20   21 ar
    39   21   22 ar
    40   21   56 1
    41   22   23 ar
    42   22   57 1
    43   23   24 ar
    44   23   58 1
    45   24   25 ar
    46   24   26 1
    47   25   59 1
    48   26   27 1
    49   27   60 1
    50   27   61 1
    51   27   62 1
    52   28   29 1
    53   28   63 1
    54   28   74 1
    55   29   30 1
    56   29   64 1
    57   29   65 1
    58   30   31 1
    59   30   32 1
    60   30   41 1
    61   32   37 ar
    62   32   33 ar
    63   33   34 ar
    64   33   66 1
    65   34   35 ar
    66   34   67 1
    67   35   36 ar
    68   35   40 1
    69   36   37 ar
    70   36   38 1
    71   37   68 1
    72   38   39 1
    73   38   69 1
    74   38   70 1
    75   39   71 1
    76   40   72 1
    77   41   73 1
@<TRIPOS>MOLECULE
CHEMBL391006
   66    69     0     0     0
SMALL
USER_CHARGES

@<TRIPOS>ATOM
      1 C1         -0.0187    1.5258    0.0104 C.3       1 <0>        -0.1840
      2 C2          0.0021   -0.0041    0.0020 C.3       1 <0>         0.0288
      3 H1         -1.0205   -0.3814    0.0098 H         1 <0>         0.1405
      4 C3          0.7421   -0.5109    1.2415 C.3       1 <0>        -0.0941
      5 C4          0.6567   -2.0144    1.2978 C.ar      1 <0>        -0.1479
      6 C5         -0.4042   -2.6192    1.9604 C.ar      1 <0>        -0.0843
      7 C6         -0.5014   -3.9910    2.0242 C.ar      1 <0>        -0.1102
      8 C7          0.4712   -4.7827    1.4195 C.ar      1 <0>         0.1199
      9 C8          1.5455   -4.1671    0.7480 C.ar      1 <0>        -0.1107
     10 C9          1.6190   -2.7691    0.6928 C.ar      1 <0>        -0.0777
     11 C10         2.3640   -5.2048    0.2400 C.2       1 <0>        -0.1091
     12 C11         1.7993   -6.3884    0.5950 C.2       1 <0>         0.0345
     13 N1          0.6456   -6.1423    1.3139 N.pl3     1 <0>        -0.5732
     14 H2          0.0559   -6.8177    1.6839 H         1 <0>         0.4224
     15 C12         2.3310   -7.7194    0.2657 C.2       1 <0>         0.5811
     16 O1          3.3592   -7.8219   -0.3762 O.2       1 <0>        -0.5083
     17 N2          1.6790   -8.8257    0.6750 N.am      1 <0>        -0.7179
     18 C13         2.2087  -10.1516    0.3470 C.3       1 <0>         0.1735
     19 C14         1.3001  -11.2105    0.9165 C.ar      1 <0>         0.0956
     20 C15         0.3203  -11.7711    0.1187 C.ar      1 <0>        -0.1524
     21 C16        -0.5102  -12.7444    0.6522 C.ar      1 <0>        -0.0742
     22 C17        -0.3234  -13.1191    1.9742 C.ar      1 <0>        -0.1595
     23 C18         0.6772  -12.5143    2.7106 C.ar      1 <0>         0.1016
     24 N3          1.4524  -11.5953    2.1684 N.ar      1 <0>        -0.4696
     25 N4          0.6897   -0.4778   -1.2066 N.4       1 <0>        -0.5054
     26 C19        -0.0856   -0.0931   -2.3936 C.3       1 <0>        -0.0460
     27 C20         0.6305   -0.5866   -3.6524 C.3       1 <0>         0.1377
     28 H3          0.7239   -1.6719   -3.6155 H         1 <0>         0.1317
     29 C21        -0.1648   -0.1919   -4.8701 C.ar      1 <0>        -0.1524
     30 C22         0.0065    1.0608   -5.4302 C.ar      1 <0>        -0.0895
     31 C23        -0.7216    1.4251   -6.5460 C.ar      1 <0>        -0.1373
     32 C24        -1.6251    0.5327   -7.1052 C.ar      1 <0>         0.1324
     33 C25        -1.7947   -0.7234   -6.5417 C.ar      1 <0>        -0.1104
     34 C26        -1.0602   -1.0849   -5.4287 C.ar      1 <0>        -0.0623
     35 C27        -2.7751   -1.6951   -7.1464 C.3       1 <0>         0.1178
     36 O2         -2.7686   -2.9093   -6.3930 O.3       1 <0>        -0.5750
     37 O3         -2.3429    0.8889   -8.2028 O.3       1 <0>        -0.4945
     38 O4          1.9312    0.0013   -3.7219 O.3       1 <0>        -0.5463
     39 H4          1.0039    1.9031    0.0027 H         1 <0>         0.0840
     40 H5         -0.5459    1.8868   -0.8726 H         1 <0>         0.0813
     41 H6         -0.5289    1.8773    0.9072 H         1 <0>         0.1081
     42 H7          1.7879   -0.2080    1.1895 H         1 <0>         0.0977
     43 H8          0.2852   -0.0874    2.1360 H         1 <0>         0.1212
     44 H9         -1.1599   -2.0072    2.4302 H         1 <0>         0.1346
     45 H10        -1.3296   -4.4517    2.5423 H         1 <0>         0.1317
     46 H11         2.4374   -2.2900    0.1760 H         1 <0>         0.1259
     47 H12         3.2739   -5.0781   -0.3278 H         1 <0>         0.1626
     48 H13         0.8591   -8.7440    1.1868 H         1 <0>         0.3971
     49 H14         2.2629  -10.2635   -0.7359 H         1 <0>         0.0925
     50 H15         3.2057  -10.2604    0.7739 H         1 <0>         0.0943
     51 H16         0.2031  -11.4546   -0.9072 H         1 <0>         0.1382
     52 H17        -1.2846  -13.1997    0.0527 H         1 <0>         0.1404
     53 H18        -0.9523  -13.8739    2.4227 H         1 <0>         0.1413
     54 H19         0.8292  -12.8005    3.7408 H         1 <0>         0.1620
     55 H20         1.6080   -0.0627   -1.2556 H         1 <0>         0.4279
     56 H21        -1.0777   -0.5415   -2.3406 H         1 <0>         0.1438
     57 H22        -0.1790    0.9922   -2.4305 H         1 <0>         0.1389
     58 H23         0.7098    1.7550   -4.9946 H         1 <0>         0.1279
     59 H24        -0.5880    2.4038   -6.9827 H         1 <0>         0.1400
     60 H25        -1.1889   -2.0643   -4.9920 H         1 <0>         0.1415
     61 H26        -3.7749   -1.2613   -7.1279 H         1 <0>         0.0701
     62 H27        -2.4894   -1.9055   -8.1771 H         1 <0>         0.0649
     63 H28        -3.3778   -3.5823   -6.7263 H         1 <0>         0.3923
     64 H29        -1.9127    0.6725   -9.0413 H         1 <0>         0.4006
     65 H30         1.9246    0.9676   -3.7575 H         1 <0>         0.3868
     66 H31         0.7761   -1.4825   -1.1724 H         1 <0>         0.4271
@<TRIPOS>BOND
     1    1    2 1
     2    1   39 1
     3    1   40 1
     4    1   41 1
     5    2    3 1
     6    2    4 1
     7    2   25 1
     8    4    5 1
     9    4   42 1
    10    4   43 1
    11    5   10 ar
    12    5    6 ar
    13    6    7 ar
    14    6   44 1
    15    7    8 ar
    16    7   45 1
    17    8   13 1
    18    8    9 ar
    19    9   10 ar
    20    9   11 1
    21   10   46 1
    22   11   12 2
    23   11   47 1
    24   12   13 1
    25   12   15 1
    26   13   14 1
    27   15   16 2
    28   15   17 am
    29   17   18 1
    30   17   48 1
    31   18   19 1
    32   18   49 1
    33   18   50 1
    34   19   24 ar
    35   19   20 ar
    36   20   21 ar
    37   20   51 1
    38   21   22 ar
    39   21   52 1
    40   22   23 ar
    41   22   53 1
    42   23   24 ar
    43   23   54 1
    44   25   26 1
    45   25   55 1
    46   25   66 1
    47   26   27 1
    48   26   56 1
    49   26   57 1
    50   27   28 1
    51   27   29 1
    52   27   38 1
    53   29   34 ar
    54   29   30 ar
    55   30   31 ar
    56   30   58 1
    57   31   32 ar
    58   31   59 1
    59   32   33 ar
    60   32   37 1
    61   33   34 ar
    62   33   35 1
    63   34   60 1
    64   35   36 1
    65   35   61 1
    66   35   62 1
    67   36   63 1
    68   37   64 1
    69   38   65 1
@<TRIPOS>MOLECULE
CHEMBL1077273
   54    57     0     0     0
SMALL
USER_CHARGES

@<TRIPOS>ATOM
      1 C1          0.3065    1.3909    1.1806 C.2       1 <0>        -0.1018
      2 C2          1.3122    2.0866    0.5777 C.2       1 <0>        -0.0684
      3 C3          2.3648    1.3917   -0.0450 C.2       1 <0>         0.1000
      4 C4          3.5026    1.8107   -0.7249 C.2       1 <0>        -0.2656
      5 C5          4.1903    0.6782   -1.1278 C.2       1 <0>         0.0899
      6 N1          3.5313   -0.3880   -0.7292 N.2       1 <0>        -0.3438
      7 N2          2.3795    0.0201   -0.0457 N.pl3     1 <0>        -0.2663
      8 C6          1.3618   -0.6806    0.5643 C.2       1 <0>         0.0610
      9 C7          0.3279   -0.0070    1.1760 C.2       1 <0>        -0.0593
     10 C8          1.3798   -2.1495    0.5623 C.2       1 <0>         0.5722
     11 O1          0.4819   -2.7696    1.1006 O.2       1 <0>        -0.5040
     12 N3          2.3908   -2.8102   -0.0359 N.am      1 <0>        -0.6636
     13 C9          2.4602   -4.2042    0.0463 C.ar      1 <0>         0.1649
     14 C10         1.2952   -4.9606    0.0418 C.ar      1 <0>        -0.1198
     15 C11         1.3673   -6.3374    0.1230 C.ar      1 <0>        -0.0872
     16 C12         2.5976   -6.9629    0.2093 C.ar      1 <0>        -0.1271
     17 C13         3.7593   -6.2129    0.2140 C.ar      1 <0>        -0.0863
     18 C14         3.6945   -4.8361    0.1268 C.ar      1 <0>        -0.1382
     19 C15         2.6724   -8.4654    0.2988 C.3       1 <0>        -0.0968
     20 C16         2.7565   -9.0567   -1.1098 C.3       1 <0>        -0.0076
     21 N4          2.8294  -10.5213   -1.0225 N.4       1 <0>        -0.5054
     22 C17         2.9101  -11.0890   -2.3749 C.3       1 <0>        -0.0426
     23 C18         2.9860  -12.6145   -2.2840 C.3       1 <0>         0.1415
     24 H1          2.0950  -12.9934   -1.7835 H         1 <0>         0.1339
     25 C19         3.0688  -13.1969   -3.6715 C.ar      1 <0>        -0.2003
     26 C20         1.9214  -13.6208   -4.3246 C.ar      1 <0>        -0.0549
     27 C21         2.0454  -14.1501   -5.5998 C.ar      1 <0>        -0.1641
     28 C22         3.2998  -14.2371   -6.1739 C.ar      1 <0>         0.1223
     29 N5          4.3696  -13.8244   -5.5228 N.ar      1 <0>        -0.4750
     30 C23         4.2885  -13.3100   -4.3111 C.ar      1 <0>         0.1172
     31 O2          4.1466  -12.9901   -1.5397 O.3       1 <0>        -0.5460
     32 H2         -0.5023    1.9184    1.6643 H         1 <0>         0.1571
     33 H3          1.3006    3.1665    0.5779 H         1 <0>         0.1598
     34 H4          3.7968    2.8339   -0.9064 H         1 <0>         0.1641
     35 H5          5.1181    0.6715   -1.6806 H         1 <0>         0.1994
     36 H6         -0.4678   -0.5598    1.6531 H         1 <0>         0.1716
     37 H7          3.0702   -2.3186   -0.5233 H         1 <0>         0.4299
     38 H8          0.3341   -4.4726   -0.0249 H         1 <0>         0.1451
     39 H9          0.4619   -6.9261    0.1196 H         1 <0>         0.1289
     40 H10         4.7186   -6.7045    0.2815 H         1 <0>         0.1299
     41 H11         4.6024   -4.2511    0.1256 H         1 <0>         0.1332
     42 H12         3.5576   -8.7519    0.8666 H         1 <0>         0.0963
     43 H13         1.7813   -8.8444    0.7994 H         1 <0>         0.0962
     44 H14         1.8712   -8.7702   -1.6775 H         1 <0>         0.1337
     45 H15         3.6475   -8.6778   -1.6103 H         1 <0>         0.1335
     46 H16         3.6488  -10.7865   -0.4969 H         1 <0>         0.4324
     47 H17         2.0248  -10.8025   -2.9427 H         1 <0>         0.1445
     48 H18         3.8011  -10.7101   -2.8755 H         1 <0>         0.1376
     49 H19         0.9541  -13.5408   -3.8509 H         1 <0>         0.1411
     50 H20         1.1731  -14.4905   -6.1379 H         1 <0>         0.1472
     51 H21         3.4050  -14.6483   -7.1670 H         1 <0>         0.1672
     52 H22         5.1862  -12.9777   -3.8111 H         1 <0>         0.1530
     53 H23         4.9783  -12.6856   -1.9278 H         1 <0>         0.3899
     54 H24         2.0045  -10.8721   -0.5591 H         1 <0>         0.4297
@<TRIPOS>BOND
     1    1    9 1
     2    1    2 2
     3    1   32 1
     4    2    3 1
     5    2   33 1
     6    3    7 1
     7    3    4 2
     8    4    5 1
     9    4   34 1
    10    5    6 2
    11    5   35 1
    12    6    7 1
    13    7    8 1
    14    8    9 2
    15    8   10 1
    16    9   36 1
    17   10   11 2
    18   10   12 am
    19   12   13 1
    20   12   37 1
    21   13   18 ar
    22   13   14 ar
    23   14   15 ar
    24   14   38 1
    25   15   16 ar
    26   15   39 1
    27   16   17 ar
    28   16   19 1
    29   17   18 ar
    30   17   40 1
    31   18   41 1
    32   19   20 1
    33   19   42 1
    34   19   43 1
    35   20   21 1
    36   20   44 1
    37   20   45 1
    38   21   22 1
    39   21   46 1
    40   21   54 1
    41   22   23 1
    42   22   47 1
    43   22   48 1
    44   23   24 1
    45   23   25 1
    46   23   31 1
    47   25   30 ar
    48   25   26 ar
    49   26   27 ar
    50   26   49 1
    51   27   28 ar
    52   27   50 1
    53   28   29 ar
    54   28   51 1
    55   29   30 ar
    56   30   52 1
    57   31   53 1
@<TRIPOS>MOLECULE
CHEMBL363325
   28    29     0     0     0
SMALL
USER_CHARGES

@<TRIPOS>ATOM
      1 C1         -0.0187    1.5258    0.0104 C.3       1 <0>        -0.1550
      2 C2          0.0021   -0.0041    0.0020 C.3       1 <0>         0.0443
      3 O1          0.6709   -0.4649   -1.1737 O.3       1 <0>        -0.2500
      4 C3          0.7766   -1.8081   -1.3359 C.2       1 <0>         0.3548
      5 C4          1.4045   -2.4535   -2.4242 C.2       1 <0>        -0.4924
      6 N1          1.3258   -3.7419   -2.2646 N.pl3     1 <0>         0.0684
      7 O2          1.8374   -4.7271   -3.1436 O.3       1 <0>        -0.2950
      8 O3          0.6340   -3.9804   -1.0494 O.3       1 <0>         0.0827
      9 N2          0.3192   -2.7072   -0.5085 N.2       1 <0>        -0.2985
     10 S1          2.1735   -1.6405   -3.7852 S.o2      1 <0>         2.5913
     11 O4          2.5357   -0.3435   -3.3316 O.2       1 <0>        -0.8815
     12 O5          3.1223   -2.5532   -4.3201 O.2       1 <0>        -0.8764
     13 C5          0.9392   -1.4149   -5.0223 C.ar      1 <0>        -0.6611
     14 C6          0.7331   -2.3909   -5.9792 C.ar      1 <0>        -0.0126
     15 C7         -0.2353   -2.2139   -6.9497 C.ar      1 <0>        -0.1374
     16 C8         -0.9979   -1.0610   -6.9629 C.ar      1 <0>        -0.0522
     17 C9         -0.7924   -0.0853   -6.0054 C.ar      1 <0>        -0.1395
     18 C10         0.1730   -0.2643   -5.0324 C.ar      1 <0>        -0.0172
     19 H1          1.0039    1.9031    0.0027 H         1 <0>         0.0779
     20 H2         -0.5459    1.8868   -0.8726 H         1 <0>         0.0749
     21 H3         -0.5289    1.8773    0.9072 H         1 <0>         0.0929
     22 H4          0.5293   -0.3651    0.8851 H         1 <0>         0.0839
     23 H5         -1.0205   -0.3814    0.0098 H         1 <0>         0.0829
     24 H6          1.3289   -3.2916   -5.9689 H         1 <0>         0.1508
     25 H7         -0.3958   -2.9761   -7.6978 H         1 <0>         0.1401
     26 H8         -1.7539   -0.9223   -7.7216 H         1 <0>         0.1366
     27 H9         -1.3880    0.8156   -6.0160 H         1 <0>         0.1390
     28 H10         0.3310    0.4963   -4.2821 H         1 <0>         0.1481
@<TRIPOS>BOND
     1    1    2 1
     2    1   19 1
     3    1   20 1
     4    1   21 1
     5    2    3 1
     6    2   22 1
     7    2   23 1
     8    3    4 1
     9    4    9 2
    10    4    5 1
    11    5    6 2
    12    5   10 1
    13    6    7 1
    14    6    8 1
    15    8    9 1
    16   10   11 2
    17   10   12 2
    18   10   13 1
    19   13   18 ar
    20   13   14 ar
    21   14   15 ar
    22   14   24 1
    23   15   16 ar
    24   15   25 1
    25   16   17 ar
    26   16   26 1
    27   17   18 ar
    28   17   27 1
    29   18   28 1
@<TRIPOS>MOLECULE
CHEMBL1083053
   72    76     0     0     0
SMALL
USER_CHARGES

@<TRIPOS>ATOM
      1 C1         -0.0187    1.5258    0.0104 C.3       1 <0>        -0.1429
      2 C2          0.0021   -0.0041    0.0020 C.3       1 <0>        -0.0528
      3 C3          0.7421   -0.5109    1.2415 C.3       1 <0>        -0.1423
      4 C4         -1.4117   -0.5257    0.0127 C.ar      1 <0>        -0.1040
      5 C5         -2.2592   -0.2048    1.0557 C.ar      1 <0>        -0.0786
      6 C6         -3.5561   -0.6834    1.0663 C.ar      1 <0>        -0.1550
      7 C7         -4.0087   -1.4838    0.0335 C.ar      1 <0>        -0.0854
      8 C8         -3.1656   -1.8071   -1.0117 C.ar      1 <0>        -0.2085
      9 C9         -1.8651   -1.3237   -1.0273 C.ar      1 <0>         0.1290
     10 O1         -1.0353   -1.6358   -2.0574 O.3       1 <0>        -0.2996
     11 C10        -1.5698   -2.4619   -3.0937 C.3       1 <0>         0.0276
     12 C11        -0.4971   -2.7036   -4.1575 C.3       1 <0>         0.1162
     13 C12        -1.1042   -3.4825   -5.3261 C.3       1 <0>         0.0266
     14 N1         -0.0743   -3.7146   -6.3476 N.3       1 <0>        -0.5273
     15 C13         0.3545   -2.4494   -6.9601 C.3       1 <0>         0.0555
     16 C14         1.4809   -2.7252   -7.9588 C.3       1 <0>         0.0600
     17 N2          1.0056   -3.6676   -8.9814 N.3       1 <0>        -0.5345
     18 C15         0.5768   -4.9327   -8.3689 C.3       1 <0>         0.0534
     19 C16        -0.5496   -4.6569   -7.3701 C.3       1 <0>         0.0585
     20 C17         2.0355   -3.8996  -10.0029 C.3       1 <0>         0.0474
     21 C18         1.4284   -4.6786  -11.1715 C.3       1 <0>         0.0995
     22 N3          2.4555   -4.9100  -12.1901 N.am      1 <0>        -0.5593
     23 C19         2.6217   -3.9940  -13.1631 C.2       1 <0>         0.5700
     24 O2          1.9236   -2.9984  -13.1820 O.2       1 <0>        -0.4860
     25 C20         3.6429   -4.1907  -14.2025 C.ar      1 <0>        -0.1617
     26 C21         3.8479   -3.2734  -15.2225 C.ar      1 <0>        -0.0047
     27 C22         4.8258   -3.5041  -16.1829 C.ar      1 <0>        -0.1386
     28 C23         5.6058   -4.6244  -16.1550 C.ar      1 <0>        -0.0483
     29 C24         5.4301   -5.5790  -15.1380 C.ar      1 <0>        -0.0764
     30 C25         4.4409   -5.3564  -14.1575 C.ar      1 <0>         0.0079
     31 C26         4.2395   -6.2975  -13.1224 C.ar      1 <0>        -0.1619
     32 C27         5.0277   -7.4383  -13.0868 C.ar      1 <0>        -0.0047
     33 C28         5.9995   -7.6460  -14.0586 C.ar      1 <0>        -0.1389
     34 C29         6.2079   -6.7478  -15.0656 C.ar      1 <0>        -0.0479
     35 C30         3.2022   -6.0281  -12.1157 C.2       1 <0>         0.5707
     36 O3          3.0147   -6.8215  -11.2134 O.2       1 <0>        -0.4901
     37 O4          0.5761   -3.4568   -3.5893 O.3       1 <0>        -0.5356
     38 H1          1.0039    1.9031    0.0027 H         1 <0>         0.0582
     39 H2         -0.5459    1.8868   -0.8726 H         1 <0>         0.0539
     40 H3         -0.5289    1.8773    0.9072 H         1 <0>         0.0549
     41 H4          0.5123   -0.3556   -0.8948 H         1 <0>         0.0864
     42 H5          0.7568   -1.6008    1.2356 H         1 <0>         0.0547
     43 H6          1.7647   -0.1336    1.2338 H         1 <0>         0.0582
     44 H7          0.2319   -0.1594    2.1383 H         1 <0>         0.0544
     45 H8         -1.9081    0.4202    1.8635 H         1 <0>         0.1279
     46 H9         -4.2168   -0.4320    1.8828 H         1 <0>         0.1233
     47 H10        -5.0222   -1.8568    0.0443 H         1 <0>         0.1234
     48 H11        -3.5195   -2.4323   -1.8181 H         1 <0>         0.1248
     49 H12        -1.8844   -3.4163   -2.6715 H         1 <0>         0.0659
     50 H13        -2.4271   -1.9654   -3.5483 H         1 <0>         0.0693
     51 H14        -0.1190   -1.7463   -4.5163 H         1 <0>         0.1079
     52 H15        -1.4822   -4.4398   -4.9673 H         1 <0>         0.0823
     53 H16        -1.9228   -2.9080   -5.7595 H         1 <0>         0.0478
     54 H17        -0.4882   -1.9928   -7.4793 H         1 <0>         0.0442
     55 H18         0.7138   -1.7732   -6.1843 H         1 <0>         0.0838
     56 H19         1.7808   -1.7920   -8.4356 H         1 <0>         0.0813
     57 H20         2.3338   -3.1567   -7.4350 H         1 <0>         0.0466
     58 H21         0.2176   -5.6089   -9.1447 H         1 <0>         0.0823
     59 H22         1.4195   -5.3893   -7.8497 H         1 <0>         0.0478
     60 H23        -0.8494   -5.5901   -6.8934 H         1 <0>         0.0809
     61 H24        -1.4025   -4.2254   -7.8940 H         1 <0>         0.0441
     62 H25         2.4136   -2.9423  -10.3617 H         1 <0>         0.0804
     63 H26         2.8541   -4.4742   -9.5695 H         1 <0>         0.0419
     64 H27         1.0504   -5.6359  -10.8127 H         1 <0>         0.0984
     65 H28         0.6098   -4.1040  -11.6049 H         1 <0>         0.1072
     66 H29         3.2459   -2.3780  -15.2709 H         1 <0>         0.1467
     67 H30         4.9721   -2.7798  -16.9705 H         1 <0>         0.1406
     68 H31         6.3579   -4.7775  -16.9148 H         1 <0>         0.1419
     69 H32         4.8862   -8.1666  -12.3020 H         1 <0>         0.1463
     70 H33         6.6045   -8.5396  -14.0161 H         1 <0>         0.1405
     71 H34         6.9701   -6.9356  -15.8072 H         1 <0>         0.1419
     72 H35         0.3120   -4.3224   -3.2487 H         1 <0>         0.3725
@<TRIPOS>BOND
     1    1    2 1
     2    1   38 1
     3    1   39 1
     4    1   40 1
     5    2    3 1
     6    2    4 1
     7    2   41 1
     8    3   42 1
     9    3   43 1
    10    3   44 1
    11    4    9 ar
    12    4    5 ar
    13    5    6 ar
    14    5   45 1
    15    6    7 ar
    16    6   46 1
    17    7    8 ar
    18    7   47 1
    19    8    9 ar
    20    8   48 1
    21    9   10 1
    22   10   11 1
    23   11   12 1
    24   11   49 1
    25   11   50 1
    26   12   13 1
    27   12   37 1
    28   12   51 1
    29   13   14 1
    30   13   52 1
    31   13   53 1
    32   14   19 1
    33   14   15 1
    34   15   16 1
    35   15   54 1
    36   15   55 1
    37   16   17 1
    38   16   56 1
    39   16   57 1
    40   17   18 1
    41   17   20 1
    42   18   19 1
    43   18   58 1
    44   18   59 1
    45   19   60 1
    46   19   61 1
    47   20   21 1
    48   20   62 1
    49   20   63 1
    50   21   22 1
    51   21   64 1
    52   21   65 1
    53   22   35 am
    54   22   23 am
    55   23   24 2
    56   23   25 1
    57   25   30 ar
    58   25   26 ar
    59   26   27 ar
    60   26   66 1
    61   27   28 ar
    62   27   67 1
    63   28   29 ar
    64   28   68 1
    65   29   34 ar
    66   29   30 ar
    67   30   31 ar
    68   31   32 ar
    69   31   35 1
    70   32   33 ar
    71   32   69 1
    72   33   34 ar
    73   33   70 1
    74   34   71 1
    75   35   36 2
    76   37   72 1
@<TRIPOS>MOLECULE
CHEMBL1083053
   73    77     0     0     0
SMALL
USER_CHARGES

@<TRIPOS>ATOM
      1 C1         -0.0187    1.5258    0.0104 C.3       1 <0>        -0.1457
      2 C2          0.0021   -0.0041    0.0020 C.3       1 <0>        -0.0505
      3 C3          0.7421   -0.5109    1.2415 C.3       1 <0>        -0.1452
      4 C4         -1.4117   -0.5257    0.0127 C.ar      1 <0>        -0.0970
      5 C5         -2.2592   -0.2048    1.0557 C.ar      1 <0>        -0.0766
      6 C6         -3.5561   -0.6834    1.0663 C.ar      1 <0>        -0.1435
      7 C7         -4.0087   -1.4838    0.0335 C.ar      1 <0>        -0.0850
      8 C8         -3.1656   -1.8071   -1.0117 C.ar      1 <0>        -0.2058
      9 C9         -1.8651   -1.3237   -1.0273 C.ar      1 <0>         0.1176
     10 O1         -1.0353   -1.6358   -2.0574 O.3       1 <0>        -0.2993
     11 C10        -1.5698   -2.4619   -3.0937 C.3       1 <0>         0.0303
     12 C11        -0.4971   -2.7036   -4.1575 C.3       1 <0>         0.0862
     13 C12        -1.1042   -3.4825   -5.3261 C.3       1 <0>        -0.0418
     14 N1         -0.0743   -3.7146   -6.3476 N.4       1 <0>        -0.3812
     15 C13         0.3508   -2.4281   -6.9150 C.3       1 <0>        -0.0069
     16 C14         1.4371   -2.6679   -7.9657 C.3       1 <0>         0.0288
     17 N2          0.9069   -3.5386   -9.0245 N.3       1 <0>        -0.5328
     18 C15         0.4543   -4.8212   -8.4675 C.3       1 <0>         0.0190
     19 C16        -0.6239   -4.5637   -7.4126 C.3       1 <0>        -0.0012
     20 C17         1.9038   -3.7469  -10.0832 C.3       1 <0>         0.0442
     21 C18         1.2438   -4.4425  -11.2754 C.3       1 <0>         0.0986
     22 N3          2.2379   -4.6502  -12.3312 N.am      1 <0>        -0.5615
     23 C19         2.4099   -3.6886  -13.2581 C.2       1 <0>         0.5737
     24 O2          1.7440   -2.6723  -13.2059 O.2       1 <0>        -0.4878
     25 C20         3.3987   -3.8603  -14.3326 C.ar      1 <0>        -0.1717
     26 C21         3.6084   -2.8961  -15.3073 C.ar      1 <0>         0.0029
     27 C22         4.5549   -3.1047  -16.3036 C.ar      1 <0>        -0.1407
     28 C23         5.2988   -4.2485  -16.3556 C.ar      1 <0>        -0.0402
     29 C24         5.1171   -5.2507  -15.3866 C.ar      1 <0>        -0.0788
     30 C25         4.1596   -5.0509  -14.3703 C.ar      1 <0>         0.0111
     31 C26         3.9531   -6.0398  -13.3819 C.ar      1 <0>        -0.1724
     32 C27         4.7047   -7.2047  -13.4275 C.ar      1 <0>         0.0022
     33 C28         5.6455   -7.3896  -14.4338 C.ar      1 <0>        -0.1420
     34 C29         5.8583   -6.4452  -15.3967 C.ar      1 <0>        -0.0391
     35 C30         2.9497   -5.7932  -12.3358 C.2       1 <0>         0.5764
     36 O3          2.7586   -6.6281  -11.4724 O.2       1 <0>        -0.4982
     37 O4          0.5761   -3.4568   -3.5893 O.3       1 <0>        -0.5430
     38 H1          1.0039    1.9031    0.0027 H         1 <0>         0.0605
     39 H2         -0.5459    1.8868   -0.8726 H         1 <0>         0.0538
     40 H3         -0.5289    1.8773    0.9072 H         1 <0>         0.0582
     41 H4          0.5123   -0.3556   -0.8948 H         1 <0>         0.0822
     42 H5          0.2319   -0.1594    2.1383 H         1 <0>         0.0578
     43 H6          0.7568   -1.6008    1.2356 H         1 <0>         0.0542
     44 H7          1.7647   -0.1336    1.2338 H         1 <0>         0.0605
     45 H8         -1.9081    0.4202    1.8635 H         1 <0>         0.1326
     46 H9         -4.2168   -0.4320    1.8828 H         1 <0>         0.1286
     47 H10        -5.0222   -1.8568    0.0443 H         1 <0>         0.1274
     48 H11        -3.5195   -2.4323   -1.8181 H         1 <0>         0.1230
     49 H12        -1.8844   -3.4163   -2.6715 H         1 <0>         0.0756
     50 H13        -2.4271   -1.9654   -3.5483 H         1 <0>         0.0807
     51 H14        -0.1190   -1.7463   -4.5163 H         1 <0>         0.1342
     52 H15        -1.4822   -4.4398   -4.9673 H         1 <0>         0.1394
     53 H16        -1.9228   -2.9080   -5.7595 H         1 <0>         0.1461
     54 H17        -0.5033   -1.9366   -7.3810 H         1 <0>         0.1407
     55 H18         0.7464   -1.7941   -6.1215 H         1 <0>         0.1380
     56 H19         1.7421   -1.7147   -8.3976 H         1 <0>         0.1264
     57 H20         2.2968   -3.1470   -7.4973 H         1 <0>         0.0639
     58 H21         0.0422   -5.4390   -9.2654 H         1 <0>         0.1270
     59 H22         1.2978   -5.3358   -8.0073 H         1 <0>         0.0657
     60 H23        -0.9510   -5.5129   -6.9881 H         1 <0>         0.1372
     61 H24        -1.4730   -4.0613   -7.8761 H         1 <0>         0.1403
     62 H25         2.3037   -2.7838  -10.4002 H         1 <0>         0.0949
     63 H26         2.7137   -4.3690   -9.7023 H         1 <0>         0.0542
     64 H27         0.8438   -5.4056  -10.9584 H         1 <0>         0.0977
     65 H28         0.4339   -3.8203  -11.6563 H         1 <0>         0.1112
     66 H29         3.0347   -1.9812  -15.2923 H         1 <0>         0.1474
     67 H30         4.7053   -2.3438  -17.0551 H         1 <0>         0.1434
     68 H31         6.0270   -4.3835  -17.1417 H         1 <0>         0.1450
     69 H32         4.5589   -7.9696  -12.6792 H         1 <0>         0.1460
     70 H33         6.2222   -8.3025  -14.4546 H         1 <0>         0.1429
     71 H34         6.5959   -6.6162  -16.1668 H         1 <0>         0.1450
     72 H35         0.3120   -4.3224   -3.2487 H         1 <0>         0.3897
     73 H36         0.7190   -4.1746   -5.9267 H         1 <0>         0.4261
@<TRIPOS>BOND
     1    1    2 1
     2    1   38 1
     3    1   39 1
     4    1   40 1
     5    2    3 1
     6    2    4 1
     7    2   41 1
     8    3   42 1
     9    3   43 1
    10    3   44 1
    11    4    9 ar
    12    4    5 ar
    13    5    6 ar
    14    5   45 1
    15    6    7 ar
    16    6   46 1
    17    7    8 ar
    18    7   47 1
    19    8    9 ar
    20    8   48 1
    21    9   10 1
    22   10   11 1
    23   11   12 1
    24   11   49 1
    25   11   50 1
    26   12   13 1
    27   12   37 1
    28   12   51 1
    29   13   14 1
    30   13   52 1
    31   13   53 1
    32   14   19 1
    33   14   15 1
    34   14   73 1
    35   15   16 1
    36   15   54 1
    37   15   55 1
    38   16   17 1
    39   16   56 1
    40   16   57 1
    41   17   18 1
    42   17   20 1
    43   18   19 1
    44   18   58 1
    45   18   59 1
    46   19   60 1
    47   19   61 1
    48   20   21 1
    49   20   62 1
    50   20   63 1
    51   21   22 1
    52   21   64 1
    53   21   65 1
    54   22   35 am
    55   22   23 am
    56   23   24 2
    57   23   25 1
    58   25   30 ar
    59   25   26 ar
    60   26   27 ar
    61   26   66 1
    62   27   28 ar
    63   27   67 1
    64   28   29 ar
    65   28   68 1
    66   29   34 ar
    67   29   30 ar
    68   30   31 ar
    69   31   32 ar
    70   31   35 1
    71   32   33 ar
    72   32   69 1
    73   33   34 ar
    74   33   70 1
    75   34   71 1
    76   35   36 2
    77   37   72 1
@<TRIPOS>MOLECULE
CHEMBL1083053
   73    77     0     0     0
SMALL
USER_CHARGES

@<TRIPOS>ATOM
      1 C1         -0.0187    1.5258    0.0104 C.3       1 <0>        -0.1444
      2 C2          0.0021   -0.0041    0.0020 C.3       1 <0>        -0.0508
      3 C3          0.7421   -0.5109    1.2415 C.3       1 <0>        -0.1441
      4 C4         -1.4117   -0.5257    0.0127 C.ar      1 <0>        -0.1013
      5 C5         -2.2592   -0.2048    1.0557 C.ar      1 <0>        -0.0775
      6 C6         -3.5561   -0.6834    1.0663 C.ar      1 <0>        -0.1489
      7 C7         -4.0087   -1.4838    0.0335 C.ar      1 <0>        -0.0853
      8 C8         -3.1656   -1.8071   -1.0117 C.ar      1 <0>        -0.2076
      9 C9         -1.8651   -1.3237   -1.0273 C.ar      1 <0>         0.1231
     10 O1         -1.0353   -1.6358   -2.0574 O.3       1 <0>        -0.3004
     11 C10        -1.5698   -2.4619   -3.0937 C.3       1 <0>         0.0260
     12 C11        -0.4971   -2.7036   -4.1575 C.3       1 <0>         0.1157
     13 C12        -1.1042   -3.4825   -5.3261 C.3       1 <0>         0.0239
     14 N1         -0.0743   -3.7146   -6.3476 N.3       1 <0>        -0.5266
     15 C13         0.3528   -2.4495   -6.9618 C.3       1 <0>         0.0221
     16 C14         1.4655   -2.7278   -7.9749 C.3       1 <0>         0.0002
     17 N2          0.9701   -3.6497   -9.0055 N.4       1 <0>        -0.3813
     18 C15         0.5704   -4.9172   -8.3799 C.3       1 <0>        -0.0076
     19 C16        -0.5497   -4.6570   -7.3703 C.3       1 <0>         0.0279
     20 C17         2.0328   -3.9025   -9.9877 C.3       1 <0>        -0.0230
     21 C18         1.4806   -4.7617  -11.1269 C.3       1 <0>         0.0727
     22 N3          2.5404   -5.0137  -12.1064 N.am      1 <0>        -0.5593
     23 C19         2.7033   -4.1459  -13.1231 C.2       1 <0>         0.5775
     24 O2          1.9755   -3.1758  -13.2126 O.2       1 <0>        -0.4914
     25 C20         3.7567   -4.3646  -14.1253 C.ar      1 <0>        -0.1792
     26 C21         3.9596   -3.4967  -15.1881 C.ar      1 <0>         0.0103
     27 C22         4.9687   -3.7465  -16.1107 C.ar      1 <0>        -0.1432
     28 C23         5.7820   -4.8380  -16.0034 C.ar      1 <0>        -0.0322
     29 C24         5.6096   -5.7423  -14.9409 C.ar      1 <0>        -0.0810
     30 C25         4.5889   -5.4999  -13.9981 C.ar      1 <0>         0.0148
     31 C26         4.3900   -6.3906  -12.9189 C.ar      1 <0>        -0.1791
     32 C27         5.2118   -7.5018  -12.8027 C.ar      1 <0>         0.0105
     33 C28         6.2145   -7.7295  -13.7380 C.ar      1 <0>        -0.1431
     34 C29         6.4210   -6.8799  -14.7867 C.ar      1 <0>        -0.0322
     35 C30         3.3191   -6.1016  -11.9536 C.2       1 <0>         0.5777
     36 O3          3.1328   -6.8516  -11.0146 O.2       1 <0>        -0.4910
     37 O4          0.5761   -3.4568   -3.5893 O.3       1 <0>        -0.5359
     38 H1          1.0039    1.9031    0.0027 H         1 <0>         0.0592
     39 H2         -0.5459    1.8868   -0.8726 H         1 <0>         0.0531
     40 H3         -0.5289    1.8773    0.9072 H         1 <0>         0.0570
     41 H4          0.5123   -0.3556   -0.8948 H         1 <0>         0.0836
     42 H5          0.7568   -1.6008    1.2356 H         1 <0>         0.0546
     43 H6          1.7647   -0.1336    1.2338 H         1 <0>         0.0593
     44 H7          0.2319   -0.1594    2.1383 H         1 <0>         0.0565
     45 H8         -1.9081    0.4202    1.8635 H         1 <0>         0.1305
     46 H9         -4.2168   -0.4320    1.8828 H         1 <0>         0.1264
     47 H10        -5.0222   -1.8568    0.0443 H         1 <0>         0.1253
     48 H11        -3.5195   -2.4323   -1.8181 H         1 <0>         0.1230
     49 H12        -1.8844   -3.4163   -2.6715 H         1 <0>         0.0681
     50 H13        -2.4271   -1.9654   -3.5483 H         1 <0>         0.0697
     51 H14        -0.1190   -1.7463   -4.5163 H         1 <0>         0.1083
     52 H15        -1.4822   -4.4398   -4.9673 H         1 <0>         0.0966
     53 H16        -1.9228   -2.9080   -5.7595 H         1 <0>         0.0604
     54 H17        -0.4940   -1.9875   -7.4694 H         1 <0>         0.0625
     55 H18         0.7248   -1.7771   -6.1887 H         1 <0>         0.1277
     56 H19         1.7739   -1.7925   -8.4420 H         1 <0>         0.1376
     57 H20         2.3173   -3.1773   -7.4646 H         1 <0>         0.1411
     58 H21         0.2153   -5.6050   -9.1473 H         1 <0>         0.1368
     59 H22         1.4269   -5.3554   -7.8676 H         1 <0>         0.1430
     60 H23        -0.8361   -5.5953   -6.8951 H         1 <0>         0.1255
     61 H24        -1.4113   -4.2315   -7.8846 H         1 <0>         0.0620
     62 H25         2.3903   -2.9539  -10.3884 H         1 <0>         0.1373
     63 H26         2.8573   -4.4264   -9.5042 H         1 <0>         0.1375
     64 H27         1.1231   -5.7102  -10.7262 H         1 <0>         0.1196
     65 H28         0.6561   -4.2377  -11.6104 H         1 <0>         0.1194
     66 H29         3.3317   -2.6250  -15.2993 H         1 <0>         0.1481
     67 H30         5.1129   -3.0608  -16.9325 H         1 <0>         0.1455
     68 H31         6.5579   -5.0070  -16.7354 H         1 <0>         0.1473
     69 H32         5.0726   -8.1916  -11.9834 H         1 <0>         0.1483
     70 H33         6.8455   -8.5997  -13.6327 H         1 <0>         0.1456
     71 H34         7.2077   -7.0823  -15.4985 H         1 <0>         0.1473
     72 H35         0.3120   -4.3224   -3.2487 H         1 <0>         0.3780
     73 H36         0.1743   -3.2385   -9.4699 H         1 <0>         0.4221
@<TRIPOS>BOND
     1    1    2 1
     2    1   38 1
     3    1   39 1
     4    1   40 1
     5    2    3 1
     6    2    4 1
     7    2   41 1
     8    3   42 1
     9    3   43 1
    10    3   44 1
    11    4    9 ar
    12    4    5 ar
    13    5    6 ar
    14    5   45 1
    15    6    7 ar
    16    6   46 1
    17    7    8 ar
    18    7   47 1
    19    8    9 ar
    20    8   48 1
    21    9   10 1
    22   10   11 1
    23   11   12 1
    24   11   49 1
    25   11   50 1
    26   12   13 1
    27   12   37 1
    28   12   51 1
    29   13   14 1
    30   13   52 1
    31   13   53 1
    32   14   19 1
    33   14   15 1
    34   15   16 1
    35   15   54 1
    36   15   55 1
    37   16   17 1
    38   16   56 1
    39   16   57 1
    40   17   18 1
    41   17   20 1
    42   17   73 1
    43   18   19 1
    44   18   58 1
    45   18   59 1
    46   19   60 1
    47   19   61 1
    48   20   21 1
    49   20   62 1
    50   20   63 1
    51   21   22 1
    52   21   64 1
    53   21   65 1
    54   22   35 am
    55   22   23 am
    56   23   24 2
    57   23   25 1
    58   25   30 ar
    59   25   26 ar
    60   26   27 ar
    61   26   66 1
    62   27   28 ar
    63   27   67 1
    64   28   29 ar
    65   28   68 1
    66   29   34 ar
    67   29   30 ar
    68   30   31 ar
    69   31   32 ar
    70   31   35 1
    71   32   33 ar
    72   32   69 1
    73   33   34 ar
    74   33   70 1
    75   34   71 1
    76   35   36 2
    77   37   72 1
@<TRIPOS>MOLECULE
CHEMBL1083053
   72    76     0     0     0
SMALL
USER_CHARGES

@<TRIPOS>ATOM
      1 C1         -2.2104   -7.9327    0.7933 C.3       1 <0>        -0.1423
      2 C2         -2.8813   -7.7937   -0.5747 C.3       1 <0>        -0.0529
      3 C3         -3.7160   -9.0432   -0.8626 C.3       1 <0>        -0.1427
      4 C4         -3.7758   -6.5810   -0.5747 C.ar      1 <0>        -0.1040
      5 C5         -4.8208   -6.4927    0.3249 C.ar      1 <0>        -0.0786
      6 C6         -5.6421   -5.3807    0.3251 C.ar      1 <0>        -0.1551
      7 C7         -5.4199   -4.3539   -0.5742 C.ar      1 <0>        -0.0855
      8 C8         -4.3763   -4.4372   -1.4752 C.ar      1 <0>        -0.2086
      9 C9         -3.5474   -5.5499   -1.4739 C.ar      1 <0>         0.1291
     10 O1         -2.5165   -5.6316   -2.3557 O.3       1 <0>        -0.2993
     11 C10        -2.3410   -4.5328   -3.2522 C.3       1 <0>         0.0274
     12 C11        -1.1405   -4.8032   -4.1615 C.3       1 <0>         0.1188
     13 C12        -1.0275   -3.6875   -5.2023 C.3       1 <0>         0.0265
     14 N1          0.1176   -3.9536   -6.0831 N.3       1 <0>        -0.5277
     15 C13         0.5473   -2.7292   -6.7728 C.3       1 <0>         0.0596
     16 C14         1.7879   -3.0309   -7.6167 C.3       1 <0>         0.0594
     17 N2          1.4738   -4.0931   -8.5824 N.3       1 <0>        -0.5344
     18 C15         1.0441   -5.3176   -7.8927 C.3       1 <0>         0.0534
     19 C16        -0.1965   -5.0159   -7.0488 C.3       1 <0>         0.0565
     20 C17         2.6189   -4.3593   -9.4632 C.3       1 <0>         0.0475
     21 C18         2.1818   -5.2810  -10.6035 C.3       1 <0>         0.0993
     22 N3          3.3238   -5.5465  -11.4820 N.am      1 <0>        -0.5593
     23 C19         3.5492   -4.7191  -12.5202 C.2       1 <0>         0.5701
     24 O2          2.8089   -3.7735  -12.7116 O.2       1 <0>        -0.4864
     25 C20         4.6859   -4.9523  -13.4232 C.ar      1 <0>        -0.1617
     26 C21         4.9549   -4.1257  -14.5041 C.ar      1 <0>        -0.0048
     27 C22         6.0417   -4.3879  -15.3299 C.ar      1 <0>        -0.1387
     28 C23         6.8685   -5.4517  -15.1085 C.ar      1 <0>        -0.0482
     29 C24         6.6307   -6.3138  -14.0238 C.ar      1 <0>        -0.0764
     30 C25         5.5309   -6.0585  -13.1783 C.ar      1 <0>         0.0079
     31 C26         5.2649   -6.9071  -12.0797 C.ar      1 <0>        -0.1619
     32 C27         6.1000   -7.9900  -11.8477 C.ar      1 <0>        -0.0046
     33 C28         7.1808   -8.2308  -12.6879 C.ar      1 <0>        -0.1387
     34 C29         7.4528   -7.4217  -13.7536 C.ar      1 <0>        -0.0481
     35 C30         4.1123   -6.6056  -11.2181 C.2       1 <0>         0.5703
     36 O3          3.8672   -7.3193  -10.2644 O.2       1 <0>        -0.4893
     37 O4          0.0524   -4.8444   -3.3758 O.3       1 <0>        -0.5351
     38 H1         -1.5633   -8.8099    0.7933 H         1 <0>         0.0582
     39 H2         -1.6157   -7.0425    0.9984 H         1 <0>         0.0546
     40 H3         -2.9741   -8.0446    1.5629 H         1 <0>         0.0544
     41 H4         -2.1175   -7.6818   -1.3443 H         1 <0>         0.0866
     42 H5         -4.1940   -8.9443   -1.8372 H         1 <0>         0.0539
     43 H6         -3.0690   -9.9204   -0.8627 H         1 <0>         0.0583
     44 H7         -4.4798   -9.1552   -0.0931 H         1 <0>         0.0548
     45 H8         -4.9964   -7.2933    1.0282 H         1 <0>         0.1279
     46 H9         -6.4589   -5.3139    1.0286 H         1 <0>         0.1233
     47 H10        -6.0632   -3.4864   -0.5722 H         1 <0>         0.1233
     48 H11        -4.2033   -3.6350   -2.1773 H         1 <0>         0.1247
     49 H12        -3.2377   -4.4132   -3.8603 H         1 <0>         0.0691
     50 H13        -2.1656   -3.6216   -2.6803 H         1 <0>         0.0654
     51 H14        -1.2758   -5.7594   -4.6671 H         1 <0>         0.1071
     52 H15        -1.9412   -3.6500   -5.7955 H         1 <0>         0.0501
     53 H16        -0.8830   -2.7325   -4.6970 H         1 <0>         0.0806
     54 H17        -0.2554   -2.3754   -7.4198 H         1 <0>         0.0443
     55 H18         0.7862   -1.9618   -6.0364 H         1 <0>         0.0809
     56 H19         2.0913   -2.1310   -8.1519 H         1 <0>         0.0814
     57 H20         2.5991   -3.3586   -6.9666 H         1 <0>         0.0459
     58 H21         0.8052   -6.0850   -8.6291 H         1 <0>         0.0823
     59 H22         1.8468   -5.6714   -7.2458 H         1 <0>         0.0488
     60 H23        -0.4999   -5.9157   -6.5136 H         1 <0>         0.0817
     61 H24        -1.0077   -4.6882   -7.6989 H         1 <0>         0.0444
     62 H25         2.9859   -3.4196   -9.8760 H         1 <0>         0.0802
     63 H26         3.4130   -4.8399   -8.8917 H         1 <0>         0.0420
     64 H27         1.8148   -6.2207  -10.1908 H         1 <0>         0.0987
     65 H28         1.3877   -4.8005  -11.1751 H         1 <0>         0.1072
     66 H29         4.3183   -3.2767  -14.7046 H         1 <0>         0.1466
     67 H30         6.2368   -3.7344  -16.1674 H         1 <0>         0.1405
     68 H31         7.7054   -5.6311  -15.7671 H         1 <0>         0.1419
     69 H32         5.9102   -8.6474  -11.0122 H         1 <0>         0.1464
     70 H33         7.8211   -9.0784  -12.4930 H         1 <0>         0.1406
     71 H34         8.2996   -7.6333  -14.3897 H         1 <0>         0.1419
     72 H35         0.2363   -4.0248   -2.8967 H         1 <0>         0.3710
@<TRIPOS>BOND
     1    1    2 1
     2    1   38 1
     3    1   39 1
     4    1   40 1
     5    2    3 1
     6    2    4 1
     7    2   41 1
     8    3   42 1
     9    3   43 1
    10    3   44 1
    11    4    9 ar
    12    4    5 ar
    13    5    6 ar
    14    5   45 1
    15    6    7 ar
    16    6   46 1
    17    7    8 ar
    18    7   47 1
    19    8    9 ar
    20    8   48 1
    21    9   10 1
    22   10   11 1
    23   11   12 1
    24   11   49 1
    25   11   50 1
    26   12   13 1
    27   12   37 1
    28   12   51 1
    29   13   14 1
    30   13   52 1
    31   13   53 1
    32   14   19 1
    33   14   15 1
    34   15   16 1
    35   15   54 1
    36   15   55 1
    37   16   17 1
    38   16   56 1
    39   16   57 1
    40   17   18 1
    41   17   20 1
    42   18   19 1
    43   18   58 1
    44   18   59 1
    45   19   60 1
    46   19   61 1
    47   20   21 1
    48   20   62 1
    49   20   63 1
    50   21   22 1
    51   21   64 1
    52   21   65 1
    53   22   35 am
    54   22   23 am
    55   23   24 2
    56   23   25 1
    57   25   30 ar
    58   25   26 ar
    59   26   27 ar
    60   26   66 1
    61   27   28 ar
    62   27   67 1
    63   28   29 ar
    64   28   68 1
    65   29   34 ar
    66   29   30 ar
    67   30   31 ar
    68   31   32 ar
    69   31   35 1
    70   32   33 ar
    71   32   69 1
    72   33   34 ar
    73   33   70 1
    74   34   71 1
    75   35   36 2
    76   37   72 1
@<TRIPOS>MOLECULE
CHEMBL1083053
   73    77     0     0     0
SMALL
USER_CHARGES

@<TRIPOS>ATOM
      1 C1         -3.2830   -8.7167   -0.2035 C.3       1 <0>        -0.1453
      2 C2         -3.8220   -8.2191   -1.5462 C.3       1 <0>        -0.0506
      3 C3         -4.8139   -9.2399   -2.1074 C.3       1 <0>        -0.1456
      4 C4         -4.5188   -6.8975   -1.3491 C.ar      1 <0>        -0.0969
      5 C5         -5.6017   -6.8073   -0.4957 C.ar      1 <0>        -0.0766
      6 C6         -6.2416   -5.5953   -0.3148 C.ar      1 <0>        -0.1435
      7 C7         -5.7997   -4.4704   -0.9868 C.ar      1 <0>        -0.0851
      8 C8         -4.7174   -4.5552   -1.8407 C.ar      1 <0>        -0.2059
      9 C9         -4.0701   -5.7694   -2.0199 C.ar      1 <0>         0.1177
     10 O1         -3.0015   -5.8542   -2.8552 O.3       1 <0>        -0.2991
     11 C10        -2.5948   -4.6523   -3.5126 C.3       1 <0>         0.0304
     12 C11        -1.3858   -4.9427   -4.4042 C.3       1 <0>         0.0860
     13 C12        -1.0275   -3.6875   -5.2023 C.3       1 <0>        -0.0417
     14 N1          0.1201   -3.9724   -6.0739 N.4       1 <0>        -0.3815
     15 C13         0.5556   -2.7327   -6.7304 C.3       1 <0>        -0.0008
     16 C14         1.7629   -3.0254   -7.6240 C.3       1 <0>         0.0273
     17 N2          1.3913   -4.0292   -8.6313 N.3       1 <0>        -0.5329
     18 C15         0.9295   -5.2676   -7.9884 C.3       1 <0>         0.0205
     19 C16        -0.2709   -4.9564   -7.0919 C.3       1 <0>        -0.0071
     20 C17         2.5094   -4.2961   -9.5459 C.3       1 <0>         0.0444
     21 C18         2.0172   -5.1467  -10.7185 C.3       1 <0>         0.0983
     22 N3          3.1323   -5.4129  -11.6306 N.am      1 <0>        -0.5616
     23 C19         3.3702   -4.5468  -12.6339 C.2       1 <0>         0.5738
     24 O2          2.6629   -3.5665  -12.7670 O.2       1 <0>        -0.4882
     25 C20         4.4807   -4.7796  -13.5690 C.ar      1 <0>        -0.1717
     26 C21         4.7614   -3.9139  -14.6158 C.ar      1 <0>         0.0027
     27 C22         5.8224   -4.1772  -15.4742 C.ar      1 <0>        -0.1408
     28 C23         6.6121   -5.2801  -15.3183 C.ar      1 <0>        -0.0402
     29 C24         6.3614   -6.1826  -14.2700 C.ar      1 <0>        -0.0788
     30 C25         5.2875   -5.9265  -13.3920 C.ar      1 <0>         0.0111
     31 C26         5.0094   -6.8150  -12.3286 C.ar      1 <0>        -0.1724
     32 C27         5.8069   -7.9378  -12.1633 C.ar      1 <0>         0.0022
     33 C28         6.8625   -8.1789  -13.0348 C.ar      1 <0>        -0.1418
     34 C29         7.1457   -7.3315  -14.0673 C.ar      1 <0>        -0.0393
     35 C30         3.8847   -6.5117  -11.4314 C.2       1 <0>         0.5760
     36 O3          3.6300   -7.2596  -10.5069 O.2       1 <0>        -0.4972
     37 O4         -0.2744   -5.3232   -3.5906 O.3       1 <0>        -0.5426
     38 H1         -2.7790   -9.6726   -0.3461 H         1 <0>         0.0605
     39 H2         -2.5763   -7.9895    0.1963 H         1 <0>         0.0542
     40 H3         -4.1096   -8.8425    0.4957 H         1 <0>         0.0578
     41 H4         -2.9954   -8.0933   -2.2455 H         1 <0>         0.0823
     42 H5         -5.6406   -9.3657   -1.4082 H         1 <0>         0.0581
     43 H6         -5.1980   -8.8854   -3.0640 H         1 <0>         0.0538
     44 H7         -4.3100  -10.1958   -2.2500 H         1 <0>         0.0606
     45 H8         -5.9487   -7.6844    0.0303 H         1 <0>         0.1326
     46 H9         -7.0883   -5.5270    0.3521 H         1 <0>         0.1286
     47 H10        -6.3016   -3.5247   -0.8441 H         1 <0>         0.1273
     48 H11        -4.3727   -3.6764   -2.3654 H         1 <0>         0.1229
     49 H12        -3.4154   -4.2771   -4.1241 H         1 <0>         0.0806
     50 H13        -2.3253   -3.9040   -2.7674 H         1 <0>         0.0756
     51 H14        -1.6275   -5.7535   -5.0914 H         1 <0>         0.1341
     52 H15        -1.8807   -3.3882   -5.8111 H         1 <0>         0.1460
     53 H16        -0.7707   -2.8811   -4.5153 H         1 <0>         0.1393
     54 H17        -0.2588   -2.3379   -7.3379 H         1 <0>         0.1405
     55 H18         0.8331   -1.9989   -5.9737 H         1 <0>         0.1371
     56 H19         2.0769   -2.1086   -8.1229 H         1 <0>         0.1265
     57 H20         2.5821   -3.4074   -7.0149 H         1 <0>         0.0629
     58 H21         0.6355   -5.9865   -8.7532 H         1 <0>         0.1269
     59 H22         1.7350   -5.6865   -7.3853 H         1 <0>         0.0667
     60 H23        -0.6062   -5.8711   -6.6031 H         1 <0>         0.1378
     61 H24        -1.0811   -4.5502   -7.6975 H         1 <0>         0.1406
     62 H25         2.9043   -3.3524   -9.9221 H         1 <0>         0.0947
     63 H26         3.2949   -4.8319   -9.0129 H         1 <0>         0.0542
     64 H27         1.6223   -6.0904  -10.3423 H         1 <0>         0.0981
     65 H28         1.2318   -4.6109  -11.2515 H         1 <0>         0.1112
     66 H29         4.1539   -3.0334  -14.7645 H         1 <0>         0.1473
     67 H30         6.0269   -3.4930  -16.2844 H         1 <0>         0.1433
     68 H31         7.4296   -5.4594  -16.0009 H         1 <0>         0.1449
     69 H32         5.6074   -8.6261  -11.3553 H         1 <0>         0.1462
     70 H33         7.4735   -9.0578  -12.8918 H         1 <0>         0.1430
     71 H34         7.9722   -7.5444  -14.7291 H         1 <0>         0.1449
     72 H35        -0.0036   -4.6478   -2.9537 H         1 <0>         0.3896
     73 H36         0.8781   -4.3438   -5.5210 H         1 <0>         0.4262
@<TRIPOS>BOND
     1    1    2 1
     2    1   38 1
     3    1   39 1
     4    1   40 1
     5    2    3 1
     6    2    4 1
     7    2   41 1
     8    3   42 1
     9    3   43 1
    10    3   44 1
    11    4    9 ar
    12    4    5 ar
    13    5    6 ar
    14    5   45 1
    15    6    7 ar
    16    6   46 1
    17    7    8 ar
    18    7   47 1
    19    8    9 ar
    20    8   48 1
    21    9   10 1
    22   10   11 1
    23   11   12 1
    24   11   49 1
    25   11   50 1
    26   12   13 1
    27   12   37 1
    28   12   51 1
    29   13   14 1
    30   13   52 1
    31   13   53 1
    32   14   19 1
    33   14   15 1
    34   14   73 1
    35   15   16 1
    36   15   54 1
    37   15   55 1
    38   16   17 1
    39   16   56 1
    40   16   57 1
    41   17   18 1
    42   17   20 1
    43   18   19 1
    44   18   58 1
    45   18   59 1
    46   19   60 1
    47   19   61 1
    48   20   21 1
    49   20   62 1
    50   20   63 1
    51   21   22 1
    52   21   64 1
    53   21   65 1
    54   22   35 am
    55   22   23 am
    56   23   24 2
    57   23   25 1
    58   25   30 ar
    59   25   26 ar
    60   26   27 ar
    61   26   66 1
    62   27   28 ar
    63   27   67 1
    64   28   29 ar
    65   28   68 1
    66   29   34 ar
    67   29   30 ar
    68   30   31 ar
    69   31   32 ar
    70   31   35 1
    71   32   33 ar
    72   32   69 1
    73   33   34 ar
    74   33   70 1
    75   34   71 1
    76   35   36 2
    77   37   72 1
@<TRIPOS>MOLECULE
CHEMBL1083053
   73    77     0     0     0
SMALL
USER_CHARGES

@<TRIPOS>ATOM
      1 C1         -2.2095   -7.9311    0.7946 C.3       1 <0>        -0.1441
      2 C2         -2.8801   -7.7931   -0.5737 C.3       1 <0>        -0.0510
      3 C3         -3.7139   -9.0432   -0.8613 C.3       1 <0>        -0.1442
      4 C4         -3.7754   -6.5809   -0.5744 C.ar      1 <0>        -0.1011
      5 C5         -4.8207   -6.4929    0.3248 C.ar      1 <0>        -0.0774
      6 C6         -5.6428   -5.3814    0.3244 C.ar      1 <0>        -0.1491
      7 C7         -5.4210   -4.3549   -0.5753 C.ar      1 <0>        -0.0854
      8 C8         -4.3770   -4.4378   -1.4759 C.ar      1 <0>        -0.2078
      9 C9         -3.5473   -5.5500   -1.4740 C.ar      1 <0>         0.1232
     10 O1         -2.5161   -5.6315   -2.3554 O.3       1 <0>        -0.2999
     11 C10        -2.3410   -4.5329   -3.2523 C.3       1 <0>         0.0258
     12 C11        -1.1401   -4.8029   -4.1611 C.3       1 <0>         0.1182
     13 C12        -1.0275   -3.6875   -5.2023 C.3       1 <0>         0.0238
     14 N1          0.1176   -3.9536   -6.0831 N.3       1 <0>        -0.5272
     15 C13         0.5458   -2.7295   -6.7747 C.3       1 <0>         0.0280
     16 C14         1.7744   -3.0359   -7.6339 C.3       1 <0>        -0.0004
     17 N2          1.4403   -4.0799   -8.6117 N.4       1 <0>        -0.3812
     18 C15         1.0381   -5.3036   -7.9059 C.3       1 <0>        -0.0076
     19 C16        -0.1966   -5.0160   -7.0489 C.3       1 <0>         0.0244
     20 C17         2.6147   -4.3609   -9.4482 C.3       1 <0>        -0.0228
     21 C18         2.2328   -5.3562  -10.5456 C.3       1 <0>         0.0724
     22 N3          3.4040   -5.6365  -11.3799 N.am      1 <0>        -0.5592
     23 C19         3.6334   -4.8613  -12.4568 C.2       1 <0>         0.5776
     24 O2          2.8725   -3.9495  -12.7187 O.2       1 <0>        -0.4919
     25 C20         4.7990   -5.1109  -13.3175 C.ar      1 <0>        -0.1791
     26 C21         5.0732   -4.3377  -14.4359 C.ar      1 <0>         0.0101
     27 C22         6.1878   -4.6133  -15.2192 C.ar      1 <0>        -0.1433
     28 C23         7.0376   -5.6389  -14.9187 C.ar      1 <0>        -0.0321
     29 C24         6.7956   -6.4465  -13.7937 C.ar      1 <0>        -0.0810
     30 C25         5.6676   -6.1770  -12.9908 C.ar      1 <0>         0.0148
     31 C26         5.3968   -6.9712  -11.8534 C.ar      1 <0>        -0.1790
     32 C27         6.2551   -8.0150  -11.5411 C.ar      1 <0>         0.0106
     33 C28         7.3635   -8.2703  -12.3400 C.ar      1 <0>        -0.1429
     34 C29         7.6406   -7.5136  -13.4422 C.ar      1 <0>        -0.0324
     35 C30         4.2144   -6.6562  -11.0382 C.2       1 <0>         0.5773
     36 O3          3.9644   -7.3231  -10.0524 O.2       1 <0>        -0.4901
     37 O4          0.0526   -4.8429   -3.3750 O.3       1 <0>        -0.5351
     38 H1         -1.5619   -8.8078    0.7951 H         1 <0>         0.0593
     39 H2         -1.6154   -7.0404    0.9996 H         1 <0>         0.0545
     40 H3         -2.9734   -8.0432    1.5640 H         1 <0>         0.0564
     41 H4         -2.1161   -7.6810   -1.3430 H         1 <0>         0.0839
     42 H5         -4.1916   -8.9449   -1.8361 H         1 <0>         0.0532
     43 H6         -3.0663   -9.9200   -0.8608 H         1 <0>         0.0593
     44 H7         -4.4779   -9.1554   -0.0920 H         1 <0>         0.0569
     45 H8         -4.9960   -7.2933    1.0284 H         1 <0>         0.1304
     46 H9         -6.4598   -5.3149    1.0276 H         1 <0>         0.1263
     47 H10        -6.0647   -3.4878   -0.5739 H         1 <0>         0.1251
     48 H11        -4.2042   -3.6359   -2.1783 H         1 <0>         0.1228
     49 H12        -3.2376   -4.4141   -3.8607 H         1 <0>         0.0694
     50 H13        -2.1664   -3.6214   -2.6807 H         1 <0>         0.0673
     51 H14        -1.2746   -5.7593   -4.6663 H         1 <0>         0.1083
     52 H15        -1.9413   -3.6505   -5.7954 H         1 <0>         0.0626
     53 H16        -0.8832   -2.7323   -4.6973 H         1 <0>         0.0944
     54 H17        -0.2625   -2.3696   -7.4111 H         1 <0>         0.0620
     55 H18         0.7978   -1.9655   -6.0392 H         1 <0>         0.1253
     56 H19         2.0852   -2.1326   -8.1588 H         1 <0>         0.1374
     57 H20         2.5870   -3.3828   -6.9955 H         1 <0>         0.1405
     58 H21         0.8030   -6.0814   -8.6324 H         1 <0>         0.1370
     59 H22         1.8544   -5.6389   -7.2661 H         1 <0>         0.1439
     60 H23        -0.4863   -5.9202   -6.5135 H         1 <0>         0.1260
     61 H24        -1.0172   -4.6938   -7.6899 H         1 <0>         0.0628
     62 H25         2.9663   -3.4351   -9.9037 H         1 <0>         0.1372
     63 H26         3.4066   -4.7860   -8.8316 H         1 <0>         0.1376
     64 H27         1.8812   -6.2820  -10.0902 H         1 <0>         0.1199
     65 H28         1.4409   -4.9311  -11.1622 H         1 <0>         0.1194
     66 H29         4.4188   -3.5197  -14.6989 H         1 <0>         0.1480
     67 H30         6.3864   -4.0016  -16.0868 H         1 <0>         0.1454
     68 H31         7.8959   -5.8301  -15.5457 H         1 <0>         0.1473
     69 H32         6.0619   -8.6307  -10.6751 H         1 <0>         0.1485
     70 H33         8.0216   -9.0870  -12.0826 H         1 <0>         0.1456
     71 H34         8.5091   -7.7353  -14.0448 H         1 <0>         0.1473
     72 H35         0.2357   -4.0231   -2.8962 H         1 <0>         0.3759
     73 H36         0.6804   -3.7632   -9.1951 H         1 <0>         0.4221
@<TRIPOS>BOND
     1    1    2 1
     2    1   38 1
     3    1   39 1
     4    1   40 1
     5    2    3 1
     6    2    4 1
     7    2   41 1
     8    3   42 1
     9    3   43 1
    10    3   44 1
    11    4    9 ar
    12    4    5 ar
    13    5    6 ar
    14    5   45 1
    15    6    7 ar
    16    6   46 1
    17    7    8 ar
    18    7   47 1
    19    8    9 ar
    20    8   48 1
    21    9   10 1
    22   10   11 1
    23   11   12 1
    24   11   49 1
    25   11   50 1
    26   12   13 1
    27   12   37 1
    28   12   51 1
    29   13   14 1
    30   13   52 1
    31   13   53 1
    32   14   19 1
    33   14   15 1
    34   15   16 1
    35   15   54 1
    36   15   55 1
    37   16   17 1
    38   16   56 1
    39   16   57 1
    40   17   18 1
    41   17   20 1
    42   17   73 1
    43   18   19 1
    44   18   58 1
    45   18   59 1
    46   19   60 1
    47   19   61 1
    48   20   21 1
    49   20   62 1
    50   20   63 1
    51   21   22 1
    52   21   64 1
    53   21   65 1
    54   22   35 am
    55   22   23 am
    56   23   24 2
    57   23   25 1
    58   25   30 ar
    59   25   26 ar
    60   26   27 ar
    61   26   66 1
    62   27   28 ar
    63   27   67 1
    64   28   29 ar
    65   28   68 1
    66   29   34 ar
    67   29   30 ar
    68   30   31 ar
    69   31   32 ar
    70   31   35 1
    71   32   33 ar
    72   32   69 1
    73   33   34 ar
    74   33   70 1
    75   34   71 1
    76   35   36 2
    77   37   72 1
@<TRIPOS>MOLECULE
CHEMBL1363
   50    51     0     0     0
SMALL
USER_CHARGES

@<TRIPOS>ATOM
      1 C1         -0.0239    1.4905   -0.0463 C.3       1 <0>        -0.1838
      2 C2          0.0028   -0.0393   -0.0466 C.3       1 <0>         0.0285
      3 H1          0.5192   -0.3935   -0.9388 H         1 <0>         0.1401
      4 C3         -1.4306   -0.5744   -0.0408 C.3       1 <0>        -0.0923
      5 C4         -1.4068   -2.0761   -0.1649 C.ar      1 <0>        -0.1709
      6 C5         -1.4316   -2.6657   -1.4153 C.ar      1 <0>        -0.0628
      7 C6         -1.4103   -4.0420   -1.5318 C.ar      1 <0>        -0.1424
      8 C7         -1.3634   -4.8327   -0.3929 C.ar      1 <0>         0.1474
      9 C8         -1.3381   -4.2387    0.8606 C.ar      1 <0>        -0.2009
     10 C9         -1.3544   -2.8618    0.9716 C.ar      1 <0>        -0.0974
     11 O1         -1.3428   -6.1870   -0.5048 O.3       1 <0>        -0.3102
     12 C10        -1.2945   -6.9377    0.7101 C.3       1 <0>         0.0226
     13 N1          0.7087   -0.5170    1.1498 N.4       1 <0>        -0.5048
     14 C11         2.1168   -0.1038    1.0852 C.3       1 <0>        -0.0462
     15 C12         2.8520   -0.6013    2.3313 C.3       1 <0>         0.1378
     16 H2          2.7943   -1.6888    2.3773 H         1 <0>         0.1319
     17 C13         4.2967   -0.1774    2.2651 C.ar      1 <0>        -0.1327
     18 C14         4.6688    1.0764    2.7141 C.ar      1 <0>        -0.1041
     19 C15         5.9924    1.4711    2.6554 C.ar      1 <0>        -0.1192
     20 C16         6.9505    0.6097    2.1457 C.ar      1 <0>         0.1018
     21 C17         6.5764   -0.6537    1.6937 C.ar      1 <0>         0.1239
     22 C18         5.2471   -1.0448    1.7609 C.ar      1 <0>        -0.0918
     23 N2          7.5410   -1.5291    1.1772 N.am      1 <0>        -0.6778
     24 C19         7.4272   -2.8558    1.3854 C.2       1 <0>         0.4952
     25 O2          6.4494   -3.2996    1.9494 O.2       1 <0>        -0.5353
     26 O3          8.2526    0.9968    2.0865 O.3       1 <0>        -0.4924
     27 O4          2.2446   -0.0423    3.4978 O.3       1 <0>        -0.5459
     28 H3          0.9973    1.8716   -0.0504 H         1 <0>         0.0818
     29 H4         -0.5477    1.8449   -0.9340 H         1 <0>         0.1084
     30 H5         -0.5403    1.8446    0.8459 H         1 <0>         0.0839
     31 H6         -1.9190   -0.2947    0.8927 H         1 <0>         0.0965
     32 H7         -1.9806   -0.1491   -0.8802 H         1 <0>         0.1205
     33 H8         -1.4681   -2.0497   -2.3017 H         1 <0>         0.1365
     34 H9         -1.4304   -4.5021   -2.5087 H         1 <0>         0.1403
     35 H10        -1.3017   -4.8521    1.7487 H         1 <0>         0.1373
     36 H11        -1.3302   -2.3988    1.9470 H         1 <0>         0.1249
     37 H12        -1.2824   -8.0028    0.4788 H         1 <0>         0.1094
     38 H13        -0.3926   -6.6758    1.2634 H         1 <0>         0.0595
     39 H14        -2.1715   -6.7071    1.3148 H         1 <0>         0.0610
     40 H15         0.2798   -0.1223    1.9734 H         1 <0>         0.4277
     41 H16         2.5802   -0.5302    0.1955 H         1 <0>         0.1436
     42 H17         2.1746    0.9837    1.0392 H         1 <0>         0.1403
     43 H18         3.9233    1.7493    3.1113 H         1 <0>         0.1289
     44 H19         6.2796    2.4511    3.0066 H         1 <0>         0.1423
     45 H20         4.9544   -2.0252    1.4154 H         1 <0>         0.1482
     46 H21         8.2905   -1.1802    0.6699 H         1 <0>         0.4225
     47 H22         8.2068   -3.5238    1.0501 H         1 <0>         0.1547
     48 H23         8.7638    0.7798    2.8782 H         1 <0>         0.3997
     49 H24         2.2599    0.9242    3.5244 H         1 <0>         0.3872
     50 H25         0.6552   -1.5237    1.1924 H         1 <0>         0.4265
@<TRIPOS>BOND
     1    1    2 1
     2    1   28 1
     3    1   29 1
     4    1   30 1
     5    2    3 1
     6    2    4 1
     7    2   13 1
     8    4    5 1
     9    4   31 1
    10    4   32 1
    11    5   10 ar
    12    5    6 ar
    13    6    7 ar
    14    6   33 1
    15    7    8 ar
    16    7   34 1
    17    8    9 ar
    18    8   11 1
    19    9   10 ar
    20    9   35 1
    21   10   36 1
    22   11   12 1
    23   12   37 1
    24   12   38 1
    25   12   39 1
    26   13   14 1
    27   13   40 1
    28   13   50 1
    29   14   15 1
    30   14   41 1
    31   14   42 1
    32   15   16 1
    33   15   17 1
    34   15   27 1
    35   17   22 ar
    36   17   18 ar
    37   18   19 ar
    38   18   43 1
    39   19   20 ar
    40   19   44 1
    41   20   21 ar
    42   20   26 1
    43   21   22 ar
    44   21   23 1
    45   22   45 1
    46   23   24 am
    47   23   46 1
    48   24   25 2
    49   24   47 1
    50   26   48 1
    51   27   49 1
@<TRIPOS>MOLECULE
CHEMBL519240
   51    55     0     0     0
SMALL
USER_CHARGES

@<TRIPOS>ATOM
      1 C1         -0.0518    1.5017   -0.1148 C.3       1 <0>        -0.1240
      2 C2          1.3896    2.0009   -0.1884 C.3       1 <0>        -0.1233
      3 C3          2.1792    1.5324    1.0162 C.3       1 <0>        -0.1236
      4 C4          2.0195    0.0939    1.3795 C.3       1 <0>         0.0936
      5 H1          2.2717   -0.0155    2.4343 H         1 <0>         0.0954
      6 C5          0.6350   -0.5290    1.1646 C.3       1 <0>        -0.0591
      7 H2         -0.0167   -0.3840    2.0262 H         1 <0>         0.1072
      8 C6         -0.0335   -0.0263   -0.0957 C.3       1 <0>        -0.1163
      9 C7          1.0170   -1.9803    0.9762 C.2       1 <0>        -0.3344
     10 C8          2.3328   -2.0225    0.6739 C.2       1 <0>         0.2511
     11 O1          2.8682   -0.7933    0.6365 O.3       1 <0>        -0.2589
     12 C9          3.0235   -3.3350    0.3757 C.3       1 <0>        -0.0898
     13 C10         2.3849   -4.4569    1.1913 C.3       1 <0>        -0.0540
     14 C11         0.8856   -4.4170    1.1377 C.ar      1 <0>        -0.2237
     15 C12         0.2049   -3.1948    1.0601 C.ar      1 <0>         0.3605
     16 N1         -1.1238   -3.1799    1.0574 N.ar      1 <0>        -0.5496
     17 C13        -1.8045   -4.3176    1.0919 C.ar      1 <0>         0.6483
     18 N2         -1.1964   -5.4936    1.1387 N.ar      1 <0>        -0.5521
     19 C14         0.1326   -5.5842    1.1657 C.ar      1 <0>         0.5268
     20 N3          0.7537   -6.8224    1.2213 N.pl3     1 <0>        -0.6706
     21 C15         1.1158   -7.4297    2.5114 C.3       1 <0>         0.1172
     22 C16         0.5808   -8.8652    2.5396 C.3       1 <0>        -0.0241
     23 N4          1.0770   -9.5946    1.3658 N.4       1 <0>        -0.5044
     24 C17         0.5361   -8.9955    0.1392 C.3       1 <0>        -0.0241
     25 C18         1.0638   -7.5690   -0.0077 C.3       1 <0>         0.1164
     26 N5         -3.1878   -4.2751    1.0794 N.pl3     1 <0>        -0.7861
     27 H3         -0.5233    1.8744    0.7945 H         1 <0>         0.0723
     28 H4         -0.6061    1.8511   -0.9859 H         1 <0>         0.0790
     29 H5          1.8567    1.6173   -1.0955 H         1 <0>         0.0679
     30 H6          1.3913    3.0905   -0.2174 H         1 <0>         0.0831
     31 H7          3.2358    1.7200    0.8248 H         1 <0>         0.0919
     32 H8          1.8815    2.1354    1.8741 H         1 <0>         0.0970
     33 H9         -1.0557   -0.4014   -0.1447 H         1 <0>         0.0613
     34 H10         0.5270   -0.3925   -0.9558 H         1 <0>         0.0705
     35 H11         2.9287   -3.5606   -0.6864 H         1 <0>         0.1212
     36 H12         4.0793   -3.2553    0.6345 H         1 <0>         0.1271
     37 H13         2.7271   -5.4157    0.8020 H         1 <0>         0.1112
     38 H14         2.7040   -4.3648    2.2295 H         1 <0>         0.1008
     39 H15         2.2003   -7.4408    2.6194 H         1 <0>         0.1031
     40 H16         0.6696   -6.8565    3.3241 H         1 <0>         0.1198
     41 H17         0.9220   -9.3625    3.4475 H         1 <0>         0.1503
     42 H18        -0.5090   -8.8474    2.5225 H         1 <0>         0.1373
     43 H19         2.0848   -9.5495    1.3446 H         1 <0>         0.4310
     44 H20         0.8444   -9.5888   -0.7216 H         1 <0>         0.1504
     45 H21        -0.5523   -8.9737    0.1947 H         1 <0>         0.1374
     46 H22         0.5833   -7.0878   -0.8596 H         1 <0>         0.1202
     47 H23         2.1430   -7.5944   -0.1584 H         1 <0>         0.1025
     48 H24        -3.6465   -3.4211    1.0456 H         1 <0>         0.4335
     49 H25        -3.6986   -5.0994    1.1043 H         1 <0>         0.4469
     50 H26         0.7871  -10.5594    1.4236 H         1 <0>         0.4402
     51 H27        -1.5976   -2.3339    1.0303 H         1 <0>         0.4460
@<TRIPOS>BOND
     1    1    8 1
     2    1    2 1
     3    1   27 1
     4    1   28 1
     5    2    3 1
     6    2   29 1
     7    2   30 1
     8    3    4 1
     9    3   31 1
    10    3   32 1
    11    4    5 1
    12    4   11 1
    13    4    6 1
    14    6    7 1
    15    6    8 1
    16    6    9 1
    17    8   33 1
    18    8   34 1
    19    9   15 1
    20    9   10 2
    21   10   11 1
    22   10   12 1
    23   12   13 1
    24   12   35 1
    25   12   36 1
    26   13   14 1
    27   13   37 1
    28   13   38 1
    29   14   19 ar
    30   14   15 ar
    31   15   16 ar
    32   16   17 ar
    33   16   51 1
    34   17   18 ar
    35   17   26 1
    36   18   19 ar
    37   19   20 1
    38   20   25 1
    39   20   21 1
    40   21   22 1
    41   21   39 1
    42   21   40 1
    43   22   23 1
    44   22   41 1
    45   22   42 1
    46   23   24 1
    47   23   43 1
    48   23   50 1
    49   24   25 1
    50   24   44 1
    51   24   45 1
    52   25   46 1
    53   25   47 1
    54   26   48 1
    55   26   49 1
@<TRIPOS>MOLECULE
CHEMBL519240
   50    54     0     0     0
SMALL
USER_CHARGES

@<TRIPOS>ATOM
      1 C1         -0.0518    1.5017   -0.1148 C.3       1 <0>        -0.1220
      2 C2          1.3896    2.0009   -0.1884 C.3       1 <0>        -0.1192
      3 C3          2.1792    1.5324    1.0162 C.3       1 <0>        -0.1147
      4 C4          2.0195    0.0939    1.3795 C.3       1 <0>         0.0898
      5 H1          2.2717   -0.0155    2.4343 H         1 <0>         0.0758
      6 C5          0.6350   -0.5290    1.1646 C.3       1 <0>        -0.0477
      7 H2         -0.0167   -0.3840    2.0262 H         1 <0>         0.0960
      8 C6         -0.0335   -0.0263   -0.0957 C.3       1 <0>        -0.1049
      9 C7          1.0170   -1.9803    0.9762 C.2       1 <0>        -0.2453
     10 C8          2.3328   -2.0225    0.6739 C.2       1 <0>         0.1401
     11 O1          2.8682   -0.7933    0.6365 O.3       1 <0>        -0.2869
     12 C9          3.0235   -3.3350    0.3757 C.3       1 <0>        -0.0663
     13 C10         2.3849   -4.4569    1.1913 C.3       1 <0>        -0.0450
     14 C11         0.8856   -4.4170    1.1377 C.ar      1 <0>        -0.2541
     15 C12         0.2049   -3.1948    1.0601 C.ar      1 <0>         0.3245
     16 N1         -1.1238   -3.1799    1.0574 N.ar      1 <0>        -0.5564
     17 C13        -1.8045   -4.3176    1.0919 C.ar      1 <0>         0.5906
     18 N2         -1.1964   -5.4936    1.1387 N.ar      1 <0>        -0.6006
     19 C14         0.1326   -5.5842    1.1657 C.ar      1 <0>         0.4501
     20 N3          0.7537   -6.8224    1.2213 N.pl3     1 <0>        -0.6608
     21 C15         1.1158   -7.4297    2.5114 C.3       1 <0>         0.1219
     22 C16         0.5808   -8.8652    2.5396 C.3       1 <0>        -0.0241
     23 N4          1.0770   -9.5946    1.3658 N.4       1 <0>        -0.5018
     24 C17         0.5361   -8.9955    0.1392 C.3       1 <0>        -0.0239
     25 C18         1.0638   -7.5690   -0.0077 C.3       1 <0>         0.1212
     26 N5         -3.1878   -4.2751    1.0794 N.pl3     1 <0>        -0.8176
     27 H3         -0.5233    1.8744    0.7945 H         1 <0>         0.0664
     28 H4         -0.6061    1.8511   -0.9859 H         1 <0>         0.0695
     29 H5          1.8567    1.6173   -1.0955 H         1 <0>         0.0639
     30 H6          1.3913    3.0905   -0.2174 H         1 <0>         0.0723
     31 H7          3.2358    1.7200    0.8248 H         1 <0>         0.0806
     32 H8          1.8815    2.1354    1.8741 H         1 <0>         0.0857
     33 H9         -1.0557   -0.4014   -0.1447 H         1 <0>         0.0725
     34 H10         0.5270   -0.3925   -0.9558 H         1 <0>         0.0586
     35 H11         2.9287   -3.5606   -0.6864 H         1 <0>         0.0972
     36 H12         4.0793   -3.2553    0.6345 H         1 <0>         0.1003
     37 H13         2.7271   -5.4157    0.8020 H         1 <0>         0.0853
     38 H14         2.7040   -4.3648    2.2295 H         1 <0>         0.0768
     39 H15         2.2003   -7.4408    2.6194 H         1 <0>         0.0885
     40 H16         0.6696   -6.8565    3.3241 H         1 <0>         0.1147
     41 H17         0.9220   -9.3625    3.4475 H         1 <0>         0.1413
     42 H18        -0.5090   -8.8474    2.5225 H         1 <0>         0.1345
     43 H19         2.0848   -9.5495    1.3446 H         1 <0>         0.4272
     44 H20         0.8444   -9.5888   -0.7216 H         1 <0>         0.1416
     45 H21        -0.5523   -8.9737    0.1947 H         1 <0>         0.1346
     46 H22         0.5833   -7.0878   -0.8596 H         1 <0>         0.1152
     47 H23         2.1430   -7.5944   -0.1584 H         1 <0>         0.0877
     48 H24        -3.6465   -3.4211    1.0456 H         1 <0>         0.4194
     49 H25        -3.6986   -5.0994    1.1043 H         1 <0>         0.4149
     50 H26         0.7871  -10.5594    1.4236 H         1 <0>         0.4326
@<TRIPOS>BOND
     1    1    8 1
     2    1    2 1
     3    1   27 1
     4    1   28 1
     5    2    3 1
     6    2   29 1
     7    2   30 1
     8    3    4 1
     9    3   31 1
    10    3   32 1
    11    4    5 1
    12    4   11 1
    13    4    6 1
    14    6    7 1
    15    6    8 1
    16    6    9 1
    17    8   33 1
    18    8   34 1
    19    9   15 1
    20    9   10 2
    21   10   11 1
    22   10   12 1
    23   12   13 1
    24   12   35 1
    25   12   36 1
    26   13   14 1
    27   13   37 1
    28   13   38 1
    29   14   19 ar
    30   14   15 ar
    31   15   16 ar
    32   16   17 ar
    33   17   18 ar
    34   17   26 1
    35   18   19 ar
    36   19   20 1
    37   20   25 1
    38   20   21 1
    39   21   22 1
    40   21   39 1
    41   21   40 1
    42   22   23 1
    43   22   41 1
    44   22   42 1
    45   23   24 1
    46   23   43 1
    47   23   50 1
    48   24   25 1
    49   24   44 1
    50   24   45 1
    51   25   46 1
    52   25   47 1
    53   26   48 1
    54   26   49 1
@<TRIPOS>MOLECULE
CHEMBL519240
   51    55     0     0     0
SMALL
USER_CHARGES

@<TRIPOS>ATOM
      1 C1         -0.0530    1.5009   -0.1188 C.3       1 <0>        -0.1241
      2 C2          1.3884    2.0000   -0.1944 C.3       1 <0>        -0.1226
      3 C3          2.1794    1.5322    1.0096 C.3       1 <0>        -0.1211
      4 C4          2.0201    0.0940    1.3739 C.3       1 <0>         0.0885
      5 H1          2.2735   -0.0148    2.4285 H         1 <0>         0.0910
      6 C5          0.6353   -0.5290    1.1610 C.3       1 <0>        -0.0474
      7 H2         -0.0154   -0.3835    2.0233 H         1 <0>         0.1079
      8 C6         -0.0346   -0.0270   -0.0987 C.3       1 <0>        -0.1091
      9 C7          1.0170   -1.9805    0.9730 C.2       1 <0>        -0.2880
     10 C8          2.3324   -2.0229    0.6692 C.2       1 <0>         0.2249
     11 O1          2.8679   -0.7937    0.6305 O.3       1 <0>        -0.2629
     12 C9          3.0227   -3.3356    0.3710 C.3       1 <0>        -0.0848
     13 C10         2.3850   -4.4570    1.1880 C.3       1 <0>        -0.0597
     14 C11         0.8856   -4.4170    1.1361 C.ar      1 <0>        -0.1763
     15 C12         0.2049   -3.1948    1.0586 C.ar      1 <0>         0.3893
     16 N1         -1.1238   -3.1799    1.0574 N.ar      1 <0>        -0.5112
     17 C13        -1.8045   -4.3176    1.0935 C.ar      1 <0>         0.6478
     18 N2         -1.1964   -5.4935    1.1402 N.ar      1 <0>        -0.5789
     19 C14         0.1326   -5.5842    1.1657 C.ar      1 <0>         0.4358
     20 N3          0.7537   -6.8224    1.2213 N.pl3     1 <0>        -0.6731
     21 C15         1.1158   -7.4297    2.5114 C.3       1 <0>         0.1064
     22 C16         0.5808   -8.8652    2.5396 C.3       1 <0>        -0.0246
     23 N4          1.0770   -9.5946    1.3658 N.4       1 <0>        -0.5057
     24 C17         0.5361   -8.9955    0.1392 C.3       1 <0>        -0.0245
     25 C18         1.0638   -7.5690   -0.0077 C.3       1 <0>         0.1048
     26 N5         -3.1878   -4.2750    1.0825 N.pl3     1 <0>        -0.7858
     27 H3         -0.5234    1.8742    0.7909 H         1 <0>         0.0704
     28 H4         -0.6083    1.8498   -0.9894 H         1 <0>         0.0754
     29 H5          1.8544    1.6159   -1.1017 H         1 <0>         0.0659
     30 H6          1.3901    3.0896   -0.2240 H         1 <0>         0.0797
     31 H7          3.2357    1.7197    0.8169 H         1 <0>         0.0881
     32 H8          1.8828    2.1357    1.8674 H         1 <0>         0.0950
     33 H9         -1.0570   -0.4021   -0.1463 H         1 <0>         0.0741
     34 H10         0.5248   -0.3938   -0.9593 H         1 <0>         0.0610
     35 H11         2.9266   -3.5619   -0.6909 H         1 <0>         0.1187
     36 H12         4.0788   -3.2558    0.6285 H         1 <0>         0.1259
     37 H13         2.7267   -5.4161    0.7988 H         1 <0>         0.1069
     38 H14         2.7053   -4.3643    2.2258 H         1 <0>         0.1056
     39 H15         2.2003   -7.4408    2.6194 H         1 <0>         0.1105
     40 H16         0.6696   -6.8565    3.3241 H         1 <0>         0.1251
     41 H17         0.9220   -9.3625    3.4475 H         1 <0>         0.1558
     42 H18        -0.5090   -8.8474    2.5225 H         1 <0>         0.1333
     43 H19         2.0848   -9.5495    1.3446 H         1 <0>         0.4347
     44 H20         0.8444   -9.5888   -0.7216 H         1 <0>         0.1561
     45 H21        -0.5523   -8.9737    0.1947 H         1 <0>         0.1330
     46 H22         0.5833   -7.0878   -0.8596 H         1 <0>         0.1249
     47 H23         2.1430   -7.5944   -0.1584 H         1 <0>         0.1103
     48 H24        -3.6465   -3.4210    1.0488 H         1 <0>         0.4503
     49 H25        -3.6987   -5.0992    1.1085 H         1 <0>         0.4297
     50 H26         0.7871  -10.5594    1.4236 H         1 <0>         0.4428
     51 H27        -1.7289   -6.3042    1.1559 H         1 <0>         0.4302
@<TRIPOS>BOND
     1    1    8 1
     2    1    2 1
     3    1   27 1
     4    1   28 1
     5    2    3 1
     6    2   29 1
     7    2   30 1
     8    3    4 1
     9    3   31 1
    10    3   32 1
    11    4    5 1
    12    4   11 1
    13    4    6 1
    14    6    7 1
    15    6    8 1
    16    6    9 1
    17    8   33 1
    18    8   34 1
    19    9   15 1
    20    9   10 2
    21   10   11 1
    22   10   12 1
    23   12   13 1
    24   12   35 1
    25   12   36 1
    26   13   14 1
    27   13   37 1
    28   13   38 1
    29   14   19 ar
    30   14   15 ar
    31   15   16 ar
    32   16   17 ar
    33   17   18 ar
    34   17   26 1
    35   18   19 ar
    36   18   51 1
    37   19   20 1
    38   20   25 1
    39   20   21 1
    40   21   22 1
    41   21   39 1
    42   21   40 1
    43   22   23 1
    44   22   41 1
    45   22   42 1
    46   23   24 1
    47   23   43 1
    48   23   50 1
    49   24   25 1
    50   24   44 1
    51   24   45 1
    52   25   46 1
    53   25   47 1
    54   26   48 1
    55   26   49 1
@<TRIPOS>MOLECULE
CHEMBL500
   39    40     0     0     0
SMALL
USER_CHARGES

@<TRIPOS>ATOM
      1 C1         -0.0187    1.5258    0.0104 C.3       1 <0>        -0.1852
      2 C2          0.0021   -0.0041    0.0020 C.3       1 <0>         0.0239
      3 C3          0.7421   -0.5109    1.2415 C.3       1 <0>        -0.1868
      4 N1         -1.3761   -0.5125    0.0124 N.4       1 <0>        -0.5024
      5 C4         -1.3591   -1.9758   -0.1163 C.3       1 <0>        -0.0454
      6 C5         -2.7945   -2.5054   -0.1054 C.3       1 <0>         0.0867
      7 C6         -2.7738   -4.0352   -0.1138 C.3       1 <0>         0.0295
      8 O1         -4.1082   -4.5304    0.0137 O.3       1 <0>        -0.2971
      9 C7         -4.2671   -5.8798    0.0235 C.ar      1 <0>         0.1684
     10 C8         -3.1678   -6.7103   -0.0810 C.ar      1 <0>        -0.2422
     11 C9         -3.3278   -8.0885   -0.0707 C.ar      1 <0>        -0.0618
     12 C10        -4.5803   -8.6507    0.0429 C.ar      1 <0>        -0.1565
     13 C11        -5.7029   -7.8349    0.1494 C.ar      1 <0>         0.1321
     14 C12        -5.5453   -6.4381    0.1453 C.ar      1 <0>        -0.1321
     15 C13        -6.8920   -5.8771    0.2779 C.2       1 <0>        -0.1885
     16 C14        -7.7423   -6.9125    0.3564 C.2       1 <0>         0.0493
     17 N2         -7.0501   -8.0912    0.2728 N.pl3     1 <0>        -0.5917
     18 H1         -7.4485   -8.9750    0.3061 H         1 <0>         0.4219
     19 O2         -3.4857   -2.0320   -1.2631 O.3       1 <0>        -0.5429
     20 H2          1.0039    1.9031    0.0027 H         1 <0>         0.1080
     21 H3         -0.5459    1.8868   -0.8726 H         1 <0>         0.0830
     22 H4         -0.5289    1.8773    0.9072 H         1 <0>         0.0827
     23 H5          0.5123   -0.3556   -0.8948 H         1 <0>         0.1392
     24 H6          0.2319   -0.1594    2.1383 H         1 <0>         0.0834
     25 H7          0.7568   -1.6008    1.2356 H         1 <0>         0.0805
     26 H8          1.7647   -0.1336    1.2338 H         1 <0>         0.1077
     27 H9         -1.8225   -0.2564    0.8803 H         1 <0>         0.4282
     28 H10        -0.8769   -2.2525   -1.0538 H         1 <0>         0.1400
     29 H11        -0.8062   -2.4075    0.7180 H         1 <0>         0.1468
     30 H12        -3.3047   -2.1538    0.7914 H         1 <0>         0.1341
     31 H13        -2.3435   -4.3876   -1.0513 H         1 <0>         0.0770
     32 H14        -2.1714   -4.3950    0.7203 H         1 <0>         0.0812
     33 H15        -2.1794   -6.2847   -0.1714 H         1 <0>         0.1238
     34 H16        -2.4610   -8.7275   -0.1530 H         1 <0>         0.1313
     35 H17        -4.6912   -9.7250    0.0489 H         1 <0>         0.1261
     36 H18        -7.1514   -4.8291    0.3075 H         1 <0>         0.1484
     37 H19        -8.8140   -6.8286    0.4605 H         1 <0>         0.1757
     38 H20        -3.0863   -2.3073   -2.0996 H         1 <0>         0.3901
     39 H21        -1.8879   -0.1129   -0.7598 H         1 <0>         0.4336
@<TRIPOS>BOND
     1    1    2 1
     2    1   20 1
     3    1   21 1
     4    1   22 1
     5    2    3 1
     6    2    4 1
     7    2   23 1
     8    3   24 1
     9    3   25 1
    10    3   26 1
    11    4    5 1
    12    4   27 1
    13    4   39 1
    14    5    6 1
    15    5   28 1
    16    5   29 1
    17    6    7 1
    18    6   19 1
    19    6   30 1
    20    7    8 1
    21    7   31 1
    22    7   32 1
    23    8    9 1
    24    9   14 ar
    25    9   10 ar
    26   10   11 ar
    27   10   33 1
    28   11   12 ar
    29   11   34 1
    30   12   13 ar
    31   12   35 1
    32   13   17 1
    33   13   14 ar
    34   14   15 1
    35   15   16 2
    36   15   36 1
    37   16   17 1
    38   16   37 1
    39   17   18 1
    40   19   38 1
@<TRIPOS>MOLECULE
CHEMBL500
   39    40     0     0     0
SMALL
USER_CHARGES

@<TRIPOS>ATOM
      1 C1         -0.0187    1.5258    0.0104 C.3       1 <0>        -0.1852
      2 C2          0.0021   -0.0041    0.0020 C.3       1 <0>         0.0237
      3 C3          0.7421   -0.5109    1.2415 C.3       1 <0>        -0.1864
      4 N1         -1.3761   -0.5125    0.0124 N.4       1 <0>        -0.5019
      5 C4         -1.3591   -1.9758   -0.1163 C.3       1 <0>        -0.0457
      6 C5         -2.7945   -2.5054   -0.1054 C.3       1 <0>         0.0864
      7 C6         -2.7769   -4.0294   -0.2395 C.3       1 <0>         0.0296
      8 O1         -4.1170   -4.5137   -0.3464 O.3       1 <0>        -0.2971
      9 C7         -4.2793   -5.8568   -0.4731 C.ar      1 <0>         0.1684
     10 C8         -3.1787   -6.6919   -0.4886 C.ar      1 <0>        -0.2422
     11 C9         -3.3422   -8.0637   -0.6174 C.ar      1 <0>        -0.0618
     12 C10        -4.5995   -8.6149   -0.7320 C.ar      1 <0>        -0.1564
     13 C11        -5.7235   -7.7942   -0.7190 C.ar      1 <0>         0.1320
     14 C12        -5.5633   -6.4043   -0.5830 C.ar      1 <0>        -0.1321
     15 C13        -6.9136   -5.8364   -0.5977 C.2       1 <0>        -0.1885
     16 C14        -7.7690   -6.8622   -0.7292 C.2       1 <0>         0.0493
     17 N2         -7.0752   -8.0399   -0.8117 N.pl3     1 <0>        -0.5917
     18 H1         -7.4766   -8.9175   -0.9103 H         1 <0>         0.4219
     19 O2         -3.4268   -2.1426    1.1237 O.3       1 <0>        -0.5433
     20 H2          1.0039    1.9031    0.0027 H         1 <0>         0.1080
     21 H3         -0.5459    1.8868   -0.8726 H         1 <0>         0.0830
     22 H4         -0.5289    1.8773    0.9072 H         1 <0>         0.0828
     23 H5          0.5123   -0.3556   -0.8948 H         1 <0>         0.1398
     24 H6          0.2319   -0.1594    2.1383 H         1 <0>         0.0832
     25 H7          0.7568   -1.6008    1.2356 H         1 <0>         0.0799
     26 H8          1.7647   -0.1336    1.2338 H         1 <0>         0.1077
     27 H9         -1.8225   -0.2564    0.8803 H         1 <0>         0.4311
     28 H10        -0.8769   -2.2525   -1.0538 H         1 <0>         0.1466
     29 H11        -0.8062   -2.4075    0.7180 H         1 <0>         0.1403
     30 H12        -3.3474   -2.0736   -0.9397 H         1 <0>         0.1352
     31 H13        -2.2171   -4.3091   -1.1320 H         1 <0>         0.0816
     32 H14        -2.3018   -4.4659    0.6390 H         1 <0>         0.0765
     33 H15        -2.1864   -6.2749   -0.4005 H         1 <0>         0.1238
     34 H16        -2.4743   -8.7063   -0.6282 H         1 <0>         0.1313
     35 H17        -4.7130   -9.6842   -0.8324 H         1 <0>         0.1261
     36 H18        -7.1717   -4.7908   -0.5174 H         1 <0>         0.1484
     37 H19        -8.8443   -6.7714   -0.7728 H         1 <0>         0.1757
     38 H20        -2.9873   -2.4932    1.9105 H         1 <0>         0.3894
     39 H21        -1.8879   -0.1129   -0.7598 H         1 <0>         0.4306
@<TRIPOS>BOND
     1    1    2 1
     2    1   20 1
     3    1   21 1
     4    1   22 1
     5    2    3 1
     6    2    4 1
     7    2   23 1
     8    3   24 1
     9    3   25 1
    10    3   26 1
    11    4    5 1
    12    4   27 1
    13    4   39 1
    14    5    6 1
    15    5   28 1
    16    5   29 1
    17    6    7 1
    18    6   19 1
    19    6   30 1
    20    7    8 1
    21    7   31 1
    22    7   32 1
    23    8    9 1
    24    9   14 ar
    25    9   10 ar
    26   10   11 ar
    27   10   33 1
    28   11   12 ar
    29   11   34 1
    30   12   13 ar
    31   12   35 1
    32   13   17 1
    33   13   14 ar
    34   14   15 1
    35   15   16 2
    36   15   36 1
    37   16   17 1
    38   16   37 1
    39   17   18 1
    40   19   38 1
@<TRIPOS>MOLECULE
CHEMBL27
   41    42     0     0     0
SMALL
USER_CHARGES

@<TRIPOS>ATOM
      1 C1         -0.0187    1.5258    0.0104 C.3       1 <0>        -0.1864
      2 C2          0.0021   -0.0041    0.0020 C.3       1 <0>         0.0237
      3 C3          0.7421   -0.5109    1.2415 C.3       1 <0>        -0.1853
      4 N1         -1.3761   -0.5125    0.0124 N.4       1 <0>        -0.5024
      5 C4         -2.0500   -0.1262   -1.2343 C.3       1 <0>        -0.0455
      6 C5         -3.4854   -0.6557   -1.2235 C.3       1 <0>         0.0867
      7 C6         -4.1475   -0.3621   -2.5712 C.3       1 <0>         0.0290
      8 O1         -5.4460   -0.9578   -2.6037 O.3       1 <0>        -0.2976
      9 C7         -6.1730   -0.7902   -3.7385 C.ar      1 <0>         0.1358
     10 C8         -5.6568   -0.0834   -4.7882 C.ar      1 <0>        -0.2166
     11 C9         -6.3892    0.0973   -5.9580 C.ar      1 <0>        -0.0839
     12 C10        -7.6399   -0.4245   -6.0915 C.ar      1 <0>        -0.1302
     13 C11        -8.2062   -1.1581   -5.0353 C.ar      1 <0>        -0.0207
     14 C12        -7.4628   -1.3490   -3.8442 C.ar      1 <0>        -0.0669
     15 C13        -8.0269   -2.0859   -2.7904 C.ar      1 <0>        -0.0916
     16 C14        -9.2755   -2.6105   -2.9280 C.ar      1 <0>        -0.1198
     17 C15       -10.0052   -2.4276   -4.1011 C.ar      1 <0>        -0.0996
     18 C16        -9.4946   -1.7103   -5.1390 C.ar      1 <0>        -0.1126
     19 O2         -4.2221   -0.0137   -0.1809 O.3       1 <0>        -0.5426
     20 H1          1.0039    1.9031    0.0027 H         1 <0>         0.1080
     21 H2         -0.5459    1.8868   -0.8726 H         1 <0>         0.0796
     22 H3         -0.5289    1.8773    0.9072 H         1 <0>         0.0835
     23 H4          0.5123   -0.3556   -0.8948 H         1 <0>         0.1399
     24 H5          0.2319   -0.1594    2.1383 H         1 <0>         0.0829
     25 H6          0.7568   -1.6008    1.2356 H         1 <0>         0.0831
     26 H7          1.7647   -0.1336    1.2338 H         1 <0>         0.1084
     27 H8         -1.3629   -1.5185    0.0898 H         1 <0>         0.4304
     28 H9         -2.0643    0.9605   -1.3179 H         1 <0>         0.1411
     29 H10        -1.5132   -0.5489   -2.0836 H         1 <0>         0.1463
     30 H11        -3.4743   -1.7319   -1.0509 H         1 <0>         0.1348
     31 H12        -4.2389    0.7159   -2.7039 H         1 <0>         0.0781
     32 H13        -3.5374   -0.7766   -3.3737 H         1 <0>         0.0827
     33 H14        -4.6670    0.3413   -4.7087 H         1 <0>         0.1233
     34 H15        -5.9587    0.6606   -6.7727 H         1 <0>         0.1282
     35 H16        -8.1947   -0.2748   -7.0059 H         1 <0>         0.1330
     36 H17        -7.4729   -2.2360   -1.8755 H         1 <0>         0.1299
     37 H18        -9.7069   -3.1772   -2.1160 H         1 <0>         0.1276
     38 H19       -10.9936   -2.8547   -4.1849 H         1 <0>         0.1293
     39 H20       -10.0715   -1.5762   -6.0421 H         1 <0>         0.1342
     40 H21        -4.2734    0.9478   -0.2701 H         1 <0>         0.3904
     41 H22        -1.8730   -0.1212    0.7986 H         1 <0>         0.4317
@<TRIPOS>BOND
     1    1    2 1
     2    1   20 1
     3    1   21 1
     4    1   22 1
     5    2    3 1
     6    2    4 1
     7    2   23 1
     8    3   24 1
     9    3   25 1
    10    3   26 1
    11    4    5 1
    12    4   27 1
    13    4   41 1
    14    5    6 1
    15    5   28 1
    16    5   29 1
    17    6    7 1
    18    6   19 1
    19    6   30 1
    20    7    8 1
    21    7   31 1
    22    7   32 1
    23    8    9 1
    24    9   14 ar
    25    9   10 ar
    26   10   11 ar
    27   10   33 1
    28   11   12 ar
    29   11   34 1
    30   12   13 ar
    31   12   35 1
    32   13   18 ar
    33   13   14 ar
    34   14   15 ar
    35   15   16 ar
    36   15   36 1
    37   16   17 ar
    38   16   37 1
    39   17   18 ar
    40   17   38 1
    41   18   39 1
    42   19   40 1
@<TRIPOS>MOLECULE
CHEMBL27
   41    42     0     0     0
SMALL
USER_CHARGES

@<TRIPOS>ATOM
      1 C1         -0.0187    1.5258    0.0104 C.3       1 <0>        -0.1868
      2 C2          0.0021   -0.0041    0.0020 C.3       1 <0>         0.0239
      3 C3          0.7421   -0.5109    1.2415 C.3       1 <0>        -0.1852
      4 N1         -1.3761   -0.5125    0.0124 N.4       1 <0>        -0.5018
      5 C4         -2.0500   -0.1262   -1.2343 C.3       1 <0>        -0.0456
      6 C5         -3.4854   -0.6557   -1.2235 C.3       1 <0>         0.0866
      7 C6         -4.1873   -0.2533   -2.5220 C.3       1 <0>         0.0290
      8 O1         -5.5600   -0.6460   -2.4630 O.3       1 <0>        -0.2976
      9 C7         -6.3301   -0.3603   -3.5445 C.ar      1 <0>         0.1358
     10 C8         -5.7871    0.2702   -4.6286 C.ar      1 <0>        -0.2166
     11 C9         -6.5629    0.5699   -5.7447 C.ar      1 <0>        -0.0839
     12 C10        -7.8843    0.2439   -5.7897 C.ar      1 <0>        -0.1302
     13 C11        -8.4805   -0.4055   -4.6955 C.ar      1 <0>        -0.0207
     14 C12        -7.6937   -0.7172   -3.5589 C.ar      1 <0>        -0.0669
     15 C13        -8.2884   -1.3701   -2.4672 C.ar      1 <0>        -0.0916
     16 C14        -9.6084   -1.6991   -2.5165 C.ar      1 <0>        -0.1198
     17 C15       -10.3815   -1.3976   -3.6361 C.ar      1 <0>        -0.0996
     18 C16        -9.8416   -0.7560   -4.7081 C.ar      1 <0>        -0.1126
     19 O2         -3.4667   -2.0804   -1.1139 O.3       1 <0>        -0.5435
     20 H1          1.0039    1.9031    0.0027 H         1 <0>         0.1081
     21 H2         -0.5459    1.8868   -0.8726 H         1 <0>         0.0803
     22 H3         -0.5289    1.8773    0.9072 H         1 <0>         0.0836
     23 H4          0.5123   -0.3556   -0.8948 H         1 <0>         0.1393
     24 H5          0.2319   -0.1594    2.1383 H         1 <0>         0.0829
     25 H6          0.7568   -1.6008    1.2356 H         1 <0>         0.0831
     26 H7          1.7647   -0.1336    1.2338 H         1 <0>         0.1083
     27 H8         -1.3629   -1.5185    0.0898 H         1 <0>         0.4333
     28 H9         -2.0643    0.9605   -1.3179 H         1 <0>         0.1475
     29 H10        -1.5132   -0.5489   -2.0836 H         1 <0>         0.1398
     30 H11        -4.0222   -0.2330   -0.3742 H         1 <0>         0.1356
     31 H12        -4.1237    0.8273   -2.6496 H         1 <0>         0.0828
     32 H13        -3.7039   -0.7477   -3.3646 H         1 <0>         0.0780
     33 H14        -4.7413    0.5399   -4.6191 H         1 <0>         0.1233
     34 H15        -6.1098    1.0693   -6.5883 H         1 <0>         0.1282
     35 H16        -8.4722    0.4840   -6.6634 H         1 <0>         0.1330
     36 H17        -7.7014   -1.6104   -1.5931 H         1 <0>         0.1299
     37 H18       -10.0632   -2.2016   -1.6756 H         1 <0>         0.1276
     38 H19       -11.4266   -1.6698   -3.6500 H         1 <0>         0.1293
     39 H20       -10.4528   -0.5282   -5.5689 H         1 <0>         0.1342
     40 H21        -3.0042   -2.5245   -1.8377 H         1 <0>         0.3902
     41 H22        -1.8730   -0.1212    0.7986 H         1 <0>         0.4286
@<TRIPOS>BOND
     1    1    2 1
     2    1   20 1
     3    1   21 1
     4    1   22 1
     5    2    3 1
     6    2    4 1
     7    2   23 1
     8    3   24 1
     9    3   25 1
    10    3   26 1
    11    4    5 1
    12    4   27 1
    13    4   41 1
    14    5    6 1
    15    5   28 1
    16    5   29 1
    17    6    7 1
    18    6   19 1
    19    6   30 1
    20    7    8 1
    21    7   31 1
    22    7   32 1
    23    8    9 1
    24    9   14 ar
    25    9   10 ar
    26   10   11 ar
    27   10   33 1
    28   11   12 ar
    29   11   34 1
    30   12   13 ar
    31   12   35 1
    32   13   18 ar
    33   13   14 ar
    34   14   15 ar
    35   15   16 ar
    36   15   36 1
    37   16   17 ar
    38   16   37 1
    39   17   18 ar
    40   17   38 1
    41   18   39 1
    42   19   40 1
@<TRIPOS>MOLECULE
CHEMBL509336
   46    47     0     0     0
SMALL
USER_CHARGES

@<TRIPOS>ATOM
      1 C1         -0.0187    1.5258    0.0104 C.3       1 <0>        -0.1846
      2 C2          0.0021   -0.0041    0.0020 C.3       1 <0>         0.0257
      3 C3         -1.4333   -0.5336    0.0129 C.3       1 <0>        -0.1426
      4 C4         -1.4157   -2.0577   -0.1212 C.3       1 <0>        -0.0884
      5 C5         -2.8295   -2.5793   -0.1105 C.ar      1 <0>        -0.1125
      6 C6         -3.4314   -2.9172    1.0875 C.ar      1 <0>        -0.0985
      7 C7         -4.7271   -3.3960    1.1000 C.ar      1 <0>        -0.1424
      8 C8         -5.4247   -3.5373   -0.0909 C.ar      1 <0>         0.1180
      9 C9         -4.8186   -3.1971   -1.2916 C.ar      1 <0>        -0.1413
     10 C10        -3.5245   -2.7138   -1.2982 C.ar      1 <0>        -0.0942
     11 O1         -6.6993   -4.0085   -0.0813 O.3       1 <0>        -0.4977
     12 N1          0.7126   -0.4907    1.1921 N.4       1 <0>        -0.5063
     13 C11         2.1220   -0.0825    1.1220 C.3       1 <0>        -0.0466
     14 C12         2.8620   -0.5894    2.3616 C.3       1 <0>         0.1376
     15 C13         4.2758   -0.0677    2.3509 C.ar      1 <0>        -0.1549
     16 C14         5.2322   -0.6823    1.5639 C.ar      1 <0>        -0.0886
     17 C15         6.5290   -0.2063    1.5527 C.ar      1 <0>        -0.1403
     18 C16         6.8712    0.8895    2.3316 C.ar      1 <0>         0.1326
     19 C17         5.9096    1.5046    3.1200 C.ar      1 <0>        -0.1411
     20 C18         4.6130    1.0280    3.1237 C.ar      1 <0>        -0.0819
     21 O2          8.1464    1.3593    2.3226 O.3       1 <0>        -0.4955
     22 O3          2.8814   -2.0182    2.3537 O.3       1 <0>        -0.5470
     23 H1          1.0039    1.9031    0.0027 H         1 <0>         0.0818
     24 H2         -0.5459    1.8868   -0.8726 H         1 <0>         0.1076
     25 H3         -0.5289    1.8773    0.9072 H         1 <0>         0.0834
     26 H4          0.5123   -0.3556   -0.8948 H         1 <0>         0.1405
     27 H5         -1.9156   -0.2570    0.9504 H         1 <0>         0.0918
     28 H6         -1.9862   -0.1019   -0.8214 H         1 <0>         0.1156
     29 H7         -0.9334   -2.3344   -1.0587 H         1 <0>         0.0880
     30 H8         -0.8628   -2.4894    0.7131 H         1 <0>         0.0675
     31 H9         -2.8879   -2.8071    2.0143 H         1 <0>         0.1244
     32 H10        -5.1966   -3.6605    2.0359 H         1 <0>         0.1333
     33 H11        -5.3596   -3.3061   -2.2200 H         1 <0>         0.1341
     34 H12        -3.0538   -2.4447   -2.2322 H         1 <0>         0.1281
     35 H13        -7.3727   -3.3195    0.0019 H         1 <0>         0.3976
     36 H14         0.2896   -0.0986    2.0201 H         1 <0>         0.4268
     37 H15         2.5788   -0.5061    0.2276 H         1 <0>         0.1368
     38 H16         2.1837    1.0050    1.0814 H         1 <0>         0.1461
     39 H17         2.3518   -0.2378    3.2583 H         1 <0>         0.1305
     40 H18         4.9653   -1.5354    0.9577 H         1 <0>         0.1268
     41 H19         7.2759   -0.6872    0.9384 H         1 <0>         0.1383
     42 H20         6.1736    2.3579    3.7272 H         1 <0>         0.1389
     43 H21         3.8630    1.5093    3.7339 H         1 <0>         0.1326
     44 H22         8.3120    2.0347    1.6506 H         1 <0>         0.4009
     45 H23         3.3210   -2.4014    1.5823 H         1 <0>         0.3886
     46 H24         0.6554   -1.4974    1.2298 H         1 <0>         0.4300
@<TRIPOS>BOND
     1    1    2 1
     2    1   23 1
     3    1   24 1
     4    1   25 1
     5    2    3 1
     6    2   12 1
     7    2   26 1
     8    3    4 1
     9    3   27 1
    10    3   28 1
    11    4    5 1
    12    4   29 1
    13    4   30 1
    14    5   10 ar
    15    5    6 ar
    16    6    7 ar
    17    6   31 1
    18    7    8 ar
    19    7   32 1
    20    8    9 ar
    21    8   11 1
    22    9   10 ar
    23    9   33 1
    24   10   34 1
    25   11   35 1
    26   12   13 1
    27   12   36 1
    28   12   46 1
    29   13   14 1
    30   13   37 1
    31   13   38 1
    32   14   15 1
    33   14   22 1
    34   14   39 1
    35   15   20 ar
    36   15   16 ar
    37   16   17 ar
    38   16   40 1
    39   17   18 ar
    40   17   41 1
    41   18   19 ar
    42   18   21 1
    43   19   20 ar
    44   19   42 1
    45   20   43 1
    46   21   44 1
    47   22   45 1
@<TRIPOS>MOLECULE
CHEMBL509336
   46    47     0     0     0
SMALL
USER_CHARGES

@<TRIPOS>ATOM
      1 C1         -0.0187    1.5258    0.0104 C.3       1 <0>        -0.1846
      2 C2          0.0021   -0.0041    0.0020 C.3       1 <0>         0.0255
      3 C3         -1.4333   -0.5336    0.0129 C.3       1 <0>        -0.1425
      4 C4         -1.4157   -2.0577   -0.1212 C.3       1 <0>        -0.0881
      5 C5         -2.8295   -2.5793   -0.1105 C.ar      1 <0>        -0.1127
      6 C6         -3.4314   -2.9172    1.0875 C.ar      1 <0>        -0.0986
      7 C7         -4.7271   -3.3960    1.1000 C.ar      1 <0>        -0.1424
      8 C8         -5.4247   -3.5373   -0.0909 C.ar      1 <0>         0.1181
      9 C9         -4.8186   -3.1971   -1.2916 C.ar      1 <0>        -0.1412
     10 C10        -3.5245   -2.7138   -1.2982 C.ar      1 <0>        -0.0941
     11 O1         -6.6993   -4.0085   -0.0813 O.3       1 <0>        -0.4977
     12 N1          0.7126   -0.4907    1.1921 N.4       1 <0>        -0.5055
     13 C11         2.1220   -0.0825    1.1220 C.3       1 <0>        -0.0469
     14 C12         2.8620   -0.5894    2.3616 C.3       1 <0>         0.1377
     15 C13         4.3078   -0.1706    2.2896 C.ar      1 <0>        -0.1555
     16 C14         4.6878    1.0791    2.7429 C.ar      1 <0>        -0.0875
     17 C15         6.0125    1.4655    2.6776 C.ar      1 <0>        -0.1404
     18 C16         6.9620    0.5982    2.1572 C.ar      1 <0>         0.1325
     19 C17         6.5783   -0.6554    1.7035 C.ar      1 <0>        -0.1411
     20 C18         5.2531   -1.0390    1.7757 C.ar      1 <0>        -0.0825
     21 O2          8.2657    0.9761    2.0915 O.3       1 <0>        -0.4971
     22 O3          2.2630   -0.0341    3.5341 O.3       1 <0>        -0.5477
     23 H1          1.0039    1.9031    0.0027 H         1 <0>         0.0814
     24 H2         -0.5459    1.8868   -0.8726 H         1 <0>         0.1078
     25 H3         -0.5289    1.8773    0.9072 H         1 <0>         0.0832
     26 H4          0.5123   -0.3556   -0.8948 H         1 <0>         0.1413
     27 H5         -1.9156   -0.2570    0.9504 H         1 <0>         0.0919
     28 H6         -1.9862   -0.1019   -0.8214 H         1 <0>         0.1157
     29 H7         -0.9334   -2.3344   -1.0587 H         1 <0>         0.0885
     30 H8         -0.8628   -2.4894    0.7131 H         1 <0>         0.0665
     31 H9         -2.8879   -2.8071    2.0143 H         1 <0>         0.1244
     32 H10        -5.1966   -3.6605    2.0359 H         1 <0>         0.1333
     33 H11        -5.3596   -3.3061   -2.2200 H         1 <0>         0.1341
     34 H12        -3.0538   -2.4447   -2.2322 H         1 <0>         0.1283
     35 H13        -7.3727   -3.3195    0.0019 H         1 <0>         0.3977
     36 H14         0.2896   -0.0986    2.0201 H         1 <0>         0.4297
     37 H15         2.5788   -0.5061    0.2276 H         1 <0>         0.1449
     38 H16         2.1837    1.0050    1.0814 H         1 <0>         0.1387
     39 H17         2.8002   -1.6769    2.4022 H         1 <0>         0.1314
     40 H18         3.9482    1.7540    3.1480 H         1 <0>         0.1270
     41 H19         6.3087    2.4421    3.0312 H         1 <0>         0.1382
     42 H20         7.3156   -1.3324    1.2979 H         1 <0>         0.1388
     43 H21         4.9546   -2.0165    1.4267 H         1 <0>         0.1325
     44 H22         8.7804    0.7520    2.8789 H         1 <0>         0.4027
     45 H23         2.2821    0.9322    3.5656 H         1 <0>         0.3880
     46 H24         0.6554   -1.4974    1.2298 H         1 <0>         0.4266
@<TRIPOS>BOND
     1    1    2 1
     2    1   23 1
     3    1   24 1
     4    1   25 1
     5    2    3 1
     6    2   12 1
     7    2   26 1
     8    3    4 1
     9    3   27 1
    10    3   28 1
    11    4    5 1
    12    4   29 1
    13    4   30 1
    14    5   10 ar
    15    5    6 ar
    16    6    7 ar
    17    6   31 1
    18    7    8 ar
    19    7   32 1
    20    8    9 ar
    21    8   11 1
    22    9   10 ar
    23    9   33 1
    24   10   34 1
    25   11   35 1
    26   12   13 1
    27   12   36 1
    28   12   46 1
    29   13   14 1
    30   13   37 1
    31   13   38 1
    32   14   15 1
    33   14   22 1
    34   14   39 1
    35   15   20 ar
    36   15   16 ar
    37   16   17 ar
    38   16   40 1
    39   17   18 ar
    40   17   41 1
    41   18   19 ar
    42   18   21 1
    43   19   20 ar
    44   19   42 1
    45   20   43 1
    46   21   44 1
    47   22   45 1
@<TRIPOS>MOLECULE
CHEMBL509336
   46    47     0     0     0
SMALL
USER_CHARGES

@<TRIPOS>ATOM
      1 C1         -0.0187    1.5258    0.0104 C.3       1 <0>        -0.1844
      2 C2          0.0021   -0.0041    0.0020 C.3       1 <0>         0.0256
      3 C3          0.7421   -0.5109    1.2415 C.3       1 <0>        -0.1427
      4 C4          0.8719   -2.0337    1.1708 C.3       1 <0>        -0.0880
      5 C5          1.6008   -2.5330    2.3917 C.ar      1 <0>        -0.1129
      6 C6          2.9792   -2.6404    2.3768 C.ar      1 <0>        -0.0941
      7 C7          3.6497   -3.0982    3.4945 C.ar      1 <0>        -0.1413
      8 C8          2.9388   -3.4498    4.6328 C.ar      1 <0>         0.1182
      9 C9          1.5558   -3.3406    4.6454 C.ar      1 <0>        -0.1423
     10 C10         0.8905   -2.8774    3.5269 C.ar      1 <0>        -0.0986
     11 O1          3.5960   -3.9008    5.7335 O.3       1 <0>        -0.4977
     12 N1         -1.3761   -0.5125    0.0124 N.4       1 <0>        -0.5062
     13 C11        -2.0500   -0.1262   -1.2343 C.3       1 <0>        -0.0467
     14 C12        -3.4854   -0.6557   -1.2235 C.3       1 <0>         0.1377
     15 C13        -4.1376   -0.3665   -2.5509 C.ar      1 <0>        -0.1549
     16 C14        -4.6359    0.8960   -2.8145 C.ar      1 <0>        -0.0887
     17 C15        -5.2346    1.1635   -4.0304 C.ar      1 <0>        -0.1403
     18 C16        -5.3352    0.1642   -4.9875 C.ar      1 <0>         0.1326
     19 C17        -4.8341   -1.1016   -4.7207 C.ar      1 <0>        -0.1410
     20 C18        -4.2316   -1.3626   -3.5052 C.ar      1 <0>        -0.0818
     21 O2         -5.9242    0.4248   -6.1842 O.3       1 <0>        -0.4955
     22 O3         -4.2221   -0.0137   -0.1809 O.3       1 <0>        -0.5466
     23 H1          1.0039    1.9031    0.0027 H         1 <0>         0.1077
     24 H2         -0.5459    1.8868   -0.8726 H         1 <0>         0.0810
     25 H3         -0.5289    1.8773    0.9072 H         1 <0>         0.0834
     26 H4          0.5123   -0.3556   -0.8948 H         1 <0>         0.1411
     27 H5          1.7350   -0.0630    1.2804 H         1 <0>         0.1157
     28 H6          0.1838   -0.2350    2.1361 H         1 <0>         0.0920
     29 H7         -0.1210   -2.4817    1.1320 H         1 <0>         0.0664
     30 H8          1.4302   -2.3096    0.2763 H         1 <0>         0.0885
     31 H9          3.5321   -2.3666    1.4904 H         1 <0>         0.1282
     32 H10         4.7263   -3.1827    3.4821 H         1 <0>         0.1341
     33 H11         1.0002   -3.6137    5.5303 H         1 <0>         0.1334
     34 H12        -0.1858   -2.7880    3.5377 H         1 <0>         0.1245
     35 H13         3.8546   -3.2028    6.3507 H         1 <0>         0.3977
     36 H14        -1.3629   -1.5185    0.0898 H         1 <0>         0.4264
     37 H15        -2.0643    0.9605   -1.3179 H         1 <0>         0.1385
     38 H16        -1.5132   -0.5489   -2.0836 H         1 <0>         0.1445
     39 H17        -3.4743   -1.7319   -1.0509 H         1 <0>         0.1302
     40 H18        -4.5573    1.6735   -2.0692 H         1 <0>         0.1267
     41 H19        -5.6243    2.1496   -4.2356 H         1 <0>         0.1383
     42 H20        -4.9112   -1.8812   -5.4641 H         1 <0>         0.1389
     43 H21        -3.8374   -2.3466   -3.2987 H         1 <0>         0.1327
     44 H22        -5.3123    0.7401   -6.8634 H         1 <0>         0.4010
     45 H23        -4.2734    0.9478   -0.2701 H         1 <0>         0.3883
     46 H24        -1.8730   -0.1212    0.7986 H         1 <0>         0.4303
@<TRIPOS>BOND
     1    1    2 1
     2    1   23 1
     3    1   24 1
     4    1   25 1
     5    2    3 1
     6    2   12 1
     7    2   26 1
     8    3    4 1
     9    3   27 1
    10    3   28 1
    11    4    5 1
    12    4   29 1
    13    4   30 1
    14    5   10 ar
    15    5    6 ar
    16    6    7 ar
    17    6   31 1
    18    7    8 ar
    19    7   32 1
    20    8    9 ar
    21    8   11 1
    22    9   10 ar
    23    9   33 1
    24   10   34 1
    25   11   35 1
    26   12   13 1
    27   12   36 1
    28   12   46 1
    29   13   14 1
    30   13   37 1
    31   13   38 1
    32   14   15 1
    33   14   22 1
    34   14   39 1
    35   15   20 ar
    36   15   16 ar
    37   16   17 ar
    38   16   40 1
    39   17   18 ar
    40   17   41 1
    41   18   19 ar
    42   18   21 1
    43   19   20 ar
    44   19   42 1
    45   20   43 1
    46   21   44 1
    47   22   45 1
@<TRIPOS>MOLECULE
CHEMBL509336
   46    47     0     0     0
SMALL
USER_CHARGES

@<TRIPOS>ATOM
      1 C1         -0.0187    1.5258    0.0104 C.3       1 <0>        -0.1848
      2 C2          0.0021   -0.0041    0.0020 C.3       1 <0>         0.0257
      3 C3          0.7421   -0.5109    1.2415 C.3       1 <0>        -0.1425
      4 C4          0.8719   -2.0337    1.1708 C.3       1 <0>        -0.0884
      5 C5          1.6008   -2.5330    2.3917 C.ar      1 <0>        -0.1124
      6 C6          2.9792   -2.6404    2.3768 C.ar      1 <0>        -0.0942
      7 C7          3.6497   -3.0982    3.4945 C.ar      1 <0>        -0.1413
      8 C8          2.9388   -3.4498    4.6328 C.ar      1 <0>         0.1180
      9 C9          1.5558   -3.3406    4.6454 C.ar      1 <0>        -0.1424
     10 C10         0.8905   -2.8774    3.5269 C.ar      1 <0>        -0.0985
     11 O1          3.5960   -3.9008    5.7335 O.3       1 <0>        -0.4977
     12 N1         -1.3761   -0.5125    0.0124 N.4       1 <0>        -0.5056
     13 C11        -2.0500   -0.1262   -1.2343 C.3       1 <0>        -0.0469
     14 C12        -3.4854   -0.6557   -1.2235 C.3       1 <0>         0.1376
     15 C13        -4.1768   -0.2594   -2.5025 C.ar      1 <0>        -0.1555
     16 C14        -4.0415   -1.0449   -3.6323 C.ar      1 <0>        -0.0874
     17 C15        -4.6738   -0.6835   -4.8061 C.ar      1 <0>        -0.1403
     18 C16        -5.4455    0.4685   -4.8506 C.ar      1 <0>         0.1325
     19 C17        -5.5801    1.2548   -3.7156 C.ar      1 <0>        -0.1412
     20 C18        -4.9499    0.8862   -2.5428 C.ar      1 <0>        -0.0826
     21 O2         -6.0683    0.8264   -6.0043 O.3       1 <0>        -0.4971
     22 O3         -3.4667   -2.0804   -1.1139 O.3       1 <0>        -0.5482
     23 H1          1.0039    1.9031    0.0027 H         1 <0>         0.1077
     24 H2         -0.5459    1.8868   -0.8726 H         1 <0>         0.0821
     25 H3         -0.5289    1.8773    0.9072 H         1 <0>         0.0834
     26 H4          0.5123   -0.3556   -0.8948 H         1 <0>         0.1406
     27 H5          1.7350   -0.0630    1.2804 H         1 <0>         0.1156
     28 H6          0.1838   -0.2350    2.1361 H         1 <0>         0.0918
     29 H7         -0.1210   -2.4817    1.1320 H         1 <0>         0.0675
     30 H8          1.4302   -2.3096    0.2763 H         1 <0>         0.0880
     31 H9          3.5321   -2.3666    1.4904 H         1 <0>         0.1281
     32 H10         4.7263   -3.1827    3.4821 H         1 <0>         0.1341
     33 H11         1.0002   -3.6137    5.5303 H         1 <0>         0.1333
     34 H12        -0.1858   -2.7880    3.5377 H         1 <0>         0.1245
     35 H13         3.8546   -3.2028    6.3507 H         1 <0>         0.3976
     36 H14        -1.3629   -1.5185    0.0898 H         1 <0>         0.4294
     37 H15        -2.0643    0.9605   -1.3179 H         1 <0>         0.1465
     38 H16        -1.5132   -0.5489   -2.0836 H         1 <0>         0.1370
     39 H17        -4.0222   -0.2330   -0.3742 H         1 <0>         0.1317
     40 H18        -3.4406   -1.9417   -3.5971 H         1 <0>         0.1271
     41 H19        -4.5673   -1.2971   -5.6885 H         1 <0>         0.1382
     42 H20        -6.1803    2.1521   -3.7477 H         1 <0>         0.1387
     43 H21        -5.0579    1.4956   -1.6577 H         1 <0>         0.1324
     44 H22        -6.9594    0.4631   -6.0993 H         1 <0>         0.4026
     45 H23        -3.0042   -2.5245   -1.8377 H         1 <0>         0.3881
     46 H24        -1.8730   -0.1212    0.7986 H         1 <0>         0.4269
@<TRIPOS>BOND
     1    1    2 1
     2    1   23 1
     3    1   24 1
     4    1   25 1
     5    2    3 1
     6    2   12 1
     7    2   26 1
     8    3    4 1
     9    3   27 1
    10    3   28 1
    11    4    5 1
    12    4   29 1
    13    4   30 1
    14    5   10 ar
    15    5    6 ar
    16    6    7 ar
    17    6   31 1
    18    7    8 ar
    19    7   32 1
    20    8    9 ar
    21    8   11 1
    22    9   10 ar
    23    9   33 1
    24   10   34 1
    25   11   35 1
    26   12   13 1
    27   12   36 1
    28   12   46 1
    29   13   14 1
    30   13   37 1
    31   13   38 1
    32   14   15 1
    33   14   22 1
    34   14   39 1
    35   15   20 ar
    36   15   16 ar
    37   16   17 ar
    38   16   40 1
    39   17   18 ar
    40   17   41 1
    41   18   19 ar
    42   18   21 1
    43   19   20 ar
    44   19   42 1
    45   20   43 1
    46   21   44 1
    47   22   45 1
@<TRIPOS>MOLECULE
CHEMBL320761
   59    61     0     0     0
SMALL
USER_CHARGES

@<TRIPOS>ATOM
      1 C1         -0.0187    1.5258    0.0104 C.3       1 <0>        -0.1792
      2 C2          0.0021   -0.0041    0.0020 C.3       1 <0>         0.0548
      3 C3          0.7421   -0.5109    1.2415 C.3       1 <0>        -0.1797
      4 C4         -1.4333   -0.5336    0.0129 C.3       1 <0>        -0.1775
      5 N1          0.6897   -0.4778   -1.2066 N.4       1 <0>        -0.4983
      6 C5          2.0678    0.0307   -1.2170 C.3       1 <0>        -0.0494
      7 C6          2.7840   -0.4628   -2.4758 C.3       1 <0>         0.0887
      8 C7          4.2531   -0.0383   -2.4263 C.3       1 <0>         0.0447
      9 O1          4.9483   -0.5972   -3.5427 O.3       1 <0>        -0.2258
     10 N2          6.3234   -0.2629   -3.5910 N.2       1 <0>        -0.3101
     11 C8          7.0635   -0.7075   -4.5539 C.2       1 <0>         0.1782
     12 C9          8.5225   -0.4762   -4.7780 C.ar      1 <0>        -0.0761
     13 C10         9.5367   -0.1349   -3.8851 C.ar      1 <0>        -0.0683
     14 C11        10.8297    0.0299   -4.3351 C.ar      1 <0>        -0.1240
     15 C12        11.1231   -0.1442   -5.6762 C.ar      1 <0>        -0.0864
     16 C13        10.1258   -0.4844   -6.5706 C.ar      1 <0>        -0.1039
     17 C14         8.8256   -0.6537   -6.1411 C.ar      1 <0>        -0.0442
     18 C15         7.5592   -1.0123   -6.8354 C.3       1 <0>        -0.0424
     19 C16         6.6602   -1.5816   -5.7041 C.3       1 <0>         0.1208
     20 C17         5.2310   -1.4948   -6.2029 C.3       1 <0>        -0.1222
     21 C18         5.1293   -2.4614   -7.3989 C.3       1 <0>        -0.1145
     22 C19         6.1262   -2.1086   -8.4977 C.3       1 <0>        -0.1187
     23 C20         7.5676   -2.0143   -7.9625 C.3       1 <0>        -0.1042
     24 O2          7.0134   -2.9393   -5.4321 O.3       1 <0>        -0.3461
     25 C21         6.3674   -3.4887   -4.2820 C.3       1 <0>         0.0277
     26 O3          2.1628    0.1050   -3.6307 O.3       1 <0>        -0.5443
     27 H1          1.0039    1.9031    0.0027 H         1 <0>         0.0810
     28 H2         -0.5459    1.8868   -0.8726 H         1 <0>         0.0835
     29 H3         -0.5289    1.8773    0.9072 H         1 <0>         0.1073
     30 H4          0.2319   -0.1594    2.1383 H         1 <0>         0.1074
     31 H5          0.7568   -1.6008    1.2356 H         1 <0>         0.0835
     32 H6          1.7647   -0.1336    1.2338 H         1 <0>         0.0815
     33 H7         -1.9605   -0.1726   -0.8702 H         1 <0>         0.0833
     34 H8         -1.4185   -1.6235    0.0069 H         1 <0>         0.0831
     35 H9         -1.9435   -0.1821    0.9097 H         1 <0>         0.1078
     36 H10         0.7033   -1.4867   -1.2121 H         1 <0>         0.4280
     37 H11         2.0530    1.1205   -1.2110 H         1 <0>         0.1423
     38 H12         2.5950   -0.3304   -0.3340 H         1 <0>         0.1476
     39 H13         2.7213   -1.5498   -2.5270 H         1 <0>         0.1305
     40 H14         4.3186    1.0490   -2.4647 H         1 <0>         0.0726
     41 H15         4.7039   -0.3970   -1.5010 H         1 <0>         0.0757
     42 H16         9.3093    0.0012   -2.8381 H         1 <0>         0.1254
     43 H17        11.6133    0.2951   -3.6409 H         1 <0>         0.1337
     44 H18        12.1367   -0.0139   -6.0256 H         1 <0>         0.1343
     45 H19        10.3663   -0.6182   -7.6150 H         1 <0>         0.1313
     46 H20         7.0932   -0.0947   -7.1946 H         1 <0>         0.0946
     47 H21         4.5411   -1.7995   -5.4160 H         1 <0>         0.0772
     48 H22         5.0081   -0.4774   -6.5242 H         1 <0>         0.0750
     49 H23         5.3260   -3.4763   -7.0532 H         1 <0>         0.0698
     50 H24         4.1197   -2.4162   -7.8073 H         1 <0>         0.0645
     51 H25         6.0825   -2.8716   -9.2750 H         1 <0>         0.0706
     52 H26         5.8515   -1.1467   -8.9307 H         1 <0>         0.0597
     53 H27         8.2441   -1.6827   -8.7503 H         1 <0>         0.0738
     54 H28         7.8784   -2.9905   -7.5904 H         1 <0>         0.0823
     55 H29         6.6343   -2.9043   -3.4014 H         1 <0>         0.0357
     56 H30         5.2870   -3.4596   -4.4235 H         1 <0>         0.0437
     57 H31         6.6880   -4.5213   -4.1437 H         1 <0>         0.0920
     58 H32         2.1814    1.0716   -3.6522 H         1 <0>         0.3903
     59 H33         0.2017   -0.1436   -2.0240 H         1 <0>         0.4318
@<TRIPOS>BOND
     1    1    2 1
     2    1   27 1
     3    1   28 1
     4    1   29 1
     5    2    3 1
     6    2    4 1
     7    2    5 1
     8    3   30 1
     9    3   31 1
    10    3   32 1
    11    4   33 1
    12    4   34 1
    13    4   35 1
    14    5    6 1
    15    5   36 1
    16    5   59 1
    17    6    7 1
    18    6   37 1
    19    6   38 1
    20    7    8 1
    21    7   26 1
    22    7   39 1
    23    8    9 1
    24    8   40 1
    25    8   41 1
    26    9   10 1
    27   10   11 2
    28   11   19 1
    29   11   12 1
    30   12   17 ar
    31   12   13 ar
    32   13   14 ar
    33   13   42 1
    34   14   15 ar
    35   14   43 1
    36   15   16 ar
    37   15   44 1
    38   16   17 ar
    39   16   45 1
    40   17   18 1
    41   18   23 1
    42   18   19 1
    43   18   46 1
    44   19   20 1
    45   19   24 1
    46   20   21 1
    47   20   47 1
    48   20   48 1
    49   21   22 1
    50   21   49 1
    51   21   50 1
    52   22   23 1
    53   22   51 1
    54   22   52 1
    55   23   53 1
    56   23   54 1
    57   24   25 1
    58   25   55 1
    59   25   56 1
    60   25   57 1
    61   26   58 1
@<TRIPOS>MOLECULE
CHEMBL320761
   59    61     0     0     0
SMALL
USER_CHARGES

@<TRIPOS>ATOM
      1 C1         -0.0134    1.6277   -0.0325 C.3       1 <0>        -0.1791
      2 C2         -0.0357    0.0984   -0.0744 C.3       1 <0>         0.0549
      3 C3          0.6729   -0.4560    1.1631 C.3       1 <0>        -0.1797
      4 C4         -1.4855   -0.3901   -0.0936 C.3       1 <0>        -0.1775
      5 N1          0.6543   -0.3685   -1.2842 N.4       1 <0>        -0.4983
      6 C5          2.0463    0.1006   -1.2658 C.3       1 <0>        -0.0495
      7 C6          2.7651   -0.3857   -2.5259 C.3       1 <0>         0.0880
      8 C7          4.2448   -0.0046   -2.4482 C.3       1 <0>         0.0399
      9 O1          4.9388   -0.5588   -3.5677 O.3       1 <0>        -0.2237
     10 N2          6.3234   -0.2629   -3.5910 N.2       1 <0>        -0.3134
     11 C8          7.0635   -0.7075   -4.5539 C.2       1 <0>         0.1789
     12 C9          8.4885   -0.3860   -4.8189 C.ar      1 <0>        -0.0767
     13 C10         9.2808    0.6779   -4.3781 C.ar      1 <0>        -0.0663
     14 C11        10.6080    0.7449   -4.7457 C.ar      1 <0>        -0.1254
     15 C12        11.1583   -0.2376   -5.5500 C.ar      1 <0>        -0.0852
     16 C13        10.3773   -1.2870   -6.0005 C.ar      1 <0>        -0.1069
     17 C14         9.0456   -1.3590   -5.6492 C.ar      1 <0>        -0.0518
     18 C15         7.9647   -2.3528   -6.0473 C.3       1 <0>        -0.0347
     19 C16         6.6665   -1.6707   -5.6473 C.3       1 <0>         0.1460
     20 C17         5.4997   -2.5332   -5.3028 C.3       1 <0>        -0.1524
     21 C18         5.8271   -3.8433   -4.6153 C.3       1 <0>        -0.1101
     22 C19         6.9912   -4.5399   -5.3176 C.3       1 <0>        -0.1245
     23 C20         8.2048   -3.6314   -5.2439 C.3       1 <0>        -0.1087
     24 O2          6.2648   -0.8740   -6.7635 O.3       1 <0>        -0.3692
     25 C21         5.1421   -0.0298   -6.5010 C.3       1 <0>         0.0261
     26 O3          2.1757    0.2244   -3.6759 O.3       1 <0>        -0.5448
     27 H1          1.0195    1.9757   -0.0189 H         1 <0>         0.0809
     28 H2         -0.5182    2.0227   -0.9141 H         1 <0>         0.0834
     29 H3         -0.5254    1.9741    0.8652 H         1 <0>         0.1073
     30 H4          0.1609   -0.1096    2.0608 H         1 <0>         0.1074
     31 H5          0.6570   -1.5455    1.1333 H         1 <0>         0.0835
     32 H6          1.7058   -0.1080    1.1767 H         1 <0>         0.0814
     33 H7         -1.9904    0.0049   -0.9751 H         1 <0>         0.0832
     34 H8         -1.5015   -1.4795   -0.1234 H         1 <0>         0.0831
     35 H9         -1.9976   -0.0436    0.8042 H         1 <0>         0.1077
     36 H10         0.6396   -1.3770   -1.3118 H         1 <0>         0.4280
     37 H11         2.0623    1.1900   -1.2360 H         1 <0>         0.1422
     38 H12         2.5512   -0.2945   -0.3842 H         1 <0>         0.1476
     39 H13         2.6725   -1.4691   -2.6018 H         1 <0>         0.1310
     40 H14         4.3415    1.0810   -2.4619 H         1 <0>         0.0726
     41 H15         4.6728   -0.3959   -1.5253 H         1 <0>         0.0766
     42 H16         8.8540    1.4464   -3.7508 H         1 <0>         0.1264
     43 H17        11.2200    1.5670   -4.4052 H         1 <0>         0.1334
     44 H18        12.2008   -0.1848   -5.8272 H         1 <0>         0.1346
     45 H19        10.8112   -2.0510   -6.6286 H         1 <0>         0.1329
     46 H20         7.9965   -2.5557   -7.1177 H         1 <0>         0.1126
     47 H21         4.8356   -1.9639   -4.6524 H         1 <0>         0.0957
     48 H22         4.9583   -2.7569   -6.2220 H         1 <0>         0.0797
     49 H23         6.0983   -3.6472   -3.5779 H         1 <0>         0.0566
     50 H24         4.9514   -4.4917   -4.6411 H         1 <0>         0.0688
     51 H25         7.2049   -5.4873   -4.8227 H         1 <0>         0.0736
     52 H26         6.7355   -4.7200   -6.3618 H         1 <0>         0.0710
     53 H27         9.0707   -4.1558   -5.6481 H         1 <0>         0.0798
     54 H28         8.3928   -3.3742   -4.2015 H         1 <0>         0.0650
     55 H29         4.2857   -0.6418   -6.2179 H         1 <0>         0.0499
     56 H30         5.3843    0.6546   -5.6879 H         1 <0>         0.0384
     57 H31         4.9000    0.5418   -7.3970 H         1 <0>         0.0881
     58 H32         2.2220    1.1903   -3.6758 H         1 <0>         0.3902
     59 H33         0.1870   -0.0028   -2.1003 H         1 <0>         0.4317
@<TRIPOS>BOND
     1    1    2 1
     2    1   27 1
     3    1   28 1
     4    1   29 1
     5    2    3 1
     6    2    4 1
     7    2    5 1
     8    3   30 1
     9    3   31 1
    10    3   32 1
    11    4   33 1
    12    4   34 1
    13    4   35 1
    14    5    6 1
    15    5   36 1
    16    5   59 1
    17    6    7 1
    18    6   37 1
    19    6   38 1
    20    7    8 1
    21    7   26 1
    22    7   39 1
    23    8    9 1
    24    8   40 1
    25    8   41 1
    26    9   10 1
    27   10   11 2
    28   11   19 1
    29   11   12 1
    30   12   17 ar
    31   12   13 ar
    32   13   14 ar
    33   13   42 1
    34   14   15 ar
    35   14   43 1
    36   15   16 ar
    37   15   44 1
    38   16   17 ar
    39   16   45 1
    40   17   18 1
    41   18   23 1
    42   18   19 1
    43   18   46 1
    44   19   20 1
    45   19   24 1
    46   20   21 1
    47   20   47 1
    48   20   48 1
    49   21   22 1
    50   21   49 1
    51   21   50 1
    52   22   23 1
    53   22   51 1
    54   22   52 1
    55   23   53 1
    56   23   54 1
    57   24   25 1
    58   25   55 1
    59   25   56 1
    60   25   57 1
    61   26   58 1
@<TRIPOS>MOLECULE
CHEMBL320761
   59    61     0     0     0
SMALL
USER_CHARGES

@<TRIPOS>ATOM
      1 C1         -0.2388    1.7608   -0.3044 C.3       1 <0>        -0.1791
      2 C2         -0.3599    0.2472   -0.4921 C.3       1 <0>         0.0548
      3 C3          0.2073   -0.4661    0.7368 C.3       1 <0>        -0.1796
      4 C4         -1.8328   -0.1290   -0.6656 C.3       1 <0>        -0.1774
      5 N1          0.3933   -0.1600   -1.6858 N.4       1 <0>        -0.4982
      6 C5          1.8074    0.2012   -1.5192 C.3       1 <0>        -0.0495
      7 C6          2.5920   -0.2229   -2.7624 C.3       1 <0>         0.0902
      8 C7          4.0827    0.0392   -2.5388 C.3       1 <0>         0.0436
      9 O1          4.8266   -0.4630   -3.6507 O.3       1 <0>        -0.2100
     10 N2          6.2252   -0.2696   -3.5425 N.2       1 <0>        -0.3167
     11 C8          7.0165   -0.7526   -4.4442 C.2       1 <0>         0.1620
     12 C9          8.4821   -0.5550   -4.5469 C.ar      1 <0>        -0.0823
     13 C10         9.3135    0.4181   -3.9849 C.ar      1 <0>        -0.0653
     14 C11        10.6738    0.3725   -4.2036 C.ar      1 <0>        -0.1243
     15 C12        11.2199   -0.6351   -4.9791 C.ar      1 <0>        -0.0845
     16 C13        10.4031   -1.5928   -5.5521 C.ar      1 <0>        -0.1067
     17 C14         9.0379   -1.5509   -5.3542 C.ar      1 <0>        -0.0520
     18 C15         7.9203   -2.3988   -5.9051 C.3       1 <0>        -0.0754
     19 C16         6.6355   -1.6495   -5.6193 C.3       1 <0>         0.1515
     20 C17         6.1548   -0.7617   -6.7520 C.3       1 <0>        -0.0939
     21 C18         6.2875   -1.4337   -8.1118 C.3       1 <0>        -0.1163
     22 C19         7.7611   -1.7870   -8.3399 C.3       1 <0>        -0.1223
     23 C20         8.1620   -2.8375   -7.3209 C.3       1 <0>        -0.1038
     24 O2          5.6119   -2.5653   -5.2248 O.3       1 <0>        -0.3530
     25 C21         5.9400   -3.3421   -4.0711 C.3       1 <0>         0.0211
     26 O3          2.1400    0.5290   -3.8904 O.3       1 <0>        -0.5428
     27 H1          0.8105    2.0288   -0.1809 H         1 <0>         0.0809
     28 H2         -0.6430    2.2690   -1.1800 H         1 <0>         0.0835
     29 H3         -0.7977    2.0630    0.5812 H         1 <0>         0.1070
     30 H4         -0.3516   -0.1639    1.6225 H         1 <0>         0.1071
     31 H5          0.1211   -1.5444    0.6031 H         1 <0>         0.0834
     32 H6          1.2566   -0.1981    0.8604 H         1 <0>         0.0813
     33 H7         -2.2369    0.3792   -1.5411 H         1 <0>         0.0833
     34 H8         -1.9190   -1.2073   -0.7993 H         1 <0>         0.0831
     35 H9         -2.3917    0.1732    0.2201 H         1 <0>         0.1074
     36 H10         0.3135   -1.1582   -1.8095 H         1 <0>         0.4281
     37 H11         1.8937    1.2795   -1.3855 H         1 <0>         0.1416
     38 H12         2.2116   -0.3070   -0.6437 H         1 <0>         0.1468
     39 H13         2.4336   -1.2855   -2.9470 H         1 <0>         0.1313
     40 H14         4.2525    1.1116   -2.4426 H         1 <0>         0.0706
     41 H15         4.4073   -0.4633   -1.6277 H         1 <0>         0.0725
     42 H16         8.8901    1.2060   -3.3796 H         1 <0>         0.1274
     43 H17        11.3149    1.1252   -3.7689 H         1 <0>         0.1341
     44 H18        12.2875   -0.6735   -5.1377 H         1 <0>         0.1350
     45 H19        10.8353   -2.3762   -6.1570 H         1 <0>         0.1322
     46 H20         7.8838   -3.3007   -5.2941 H         1 <0>         0.0909
     47 H21         5.1078   -0.5099   -6.5832 H         1 <0>         0.0786
     48 H22         6.7412    0.1572   -6.7535 H         1 <0>         0.0767
     49 H23         5.6859   -2.3425   -8.1312 H         1 <0>         0.0714
     50 H24         5.9497   -0.7513   -8.8918 H         1 <0>         0.0723
     51 H25         7.8924   -2.1827   -9.3470 H         1 <0>         0.0730
     52 H26         8.3766   -0.8967   -8.2112 H         1 <0>         0.0657
     53 H27         9.2210   -3.0646   -7.4430 H         1 <0>         0.0739
     54 H28         7.5858   -3.7428   -7.5120 H         1 <0>         0.0706
     55 H29         6.7553   -4.0242   -4.3122 H         1 <0>         0.0500
     56 H30         6.2480   -2.6793   -3.2624 H         1 <0>         0.0396
     57 H31         5.0671   -3.9152   -3.7587 H         1 <0>         0.0896
     58 H32         2.2505    1.4850   -3.7956 H         1 <0>         0.3889
     59 H33         0.0192    0.3104   -2.4962 H         1 <0>         0.4319
@<TRIPOS>BOND
     1    1    2 1
     2    1   27 1
     3    1   28 1
     4    1   29 1
     5    2    3 1
     6    2    4 1
     7    2    5 1
     8    3   30 1
     9    3   31 1
    10    3   32 1
    11    4   33 1
    12    4   34 1
    13    4   35 1
    14    5    6 1
    15    5   36 1
    16    5   59 1
    17    6    7 1
    18    6   37 1
    19    6   38 1
    20    7    8 1
    21    7   26 1
    22    7   39 1
    23    8    9 1
    24    8   40 1
    25    8   41 1
    26    9   10 1
    27   10   11 2
    28   11   19 1
    29   11   12 1
    30   12   17 ar
    31   12   13 ar
    32   13   14 ar
    33   13   42 1
    34   14   15 ar
    35   14   43 1
    36   15   16 ar
    37   15   44 1
    38   16   17 ar
    39   16   45 1
    40   17   18 1
    41   18   23 1
    42   18   19 1
    43   18   46 1
    44   19   20 1
    45   19   24 1
    46   20   21 1
    47   20   47 1
    48   20   48 1
    49   21   22 1
    50   21   49 1
    51   21   50 1
    52   22   23 1
    53   22   51 1
    54   22   52 1
    55   23   53 1
    56   23   54 1
    57   24   25 1
    58   25   55 1
    59   25   56 1
    60   25   57 1
    61   26   58 1
@<TRIPOS>MOLECULE
CHEMBL320761
   59    61     0     0     0
SMALL
USER_CHARGES

@<TRIPOS>ATOM
      1 C1         -0.0187    1.5258    0.0104 C.3       1 <0>        -0.1791
      2 C2          0.0021   -0.0041    0.0020 C.3       1 <0>         0.0548
      3 C3          0.7421   -0.5109    1.2415 C.3       1 <0>        -0.1798
      4 C4         -1.4333   -0.5336    0.0129 C.3       1 <0>        -0.1775
      5 N1          0.6897   -0.4778   -1.2066 N.4       1 <0>        -0.4983
      6 C5          2.0678    0.0307   -1.2170 C.3       1 <0>        -0.0493
      7 C6          2.7840   -0.4628   -2.4758 C.3       1 <0>         0.0885
      8 C7          4.2531   -0.0383   -2.4263 C.3       1 <0>         0.0448
      9 O1          4.9483   -0.5972   -3.5427 O.3       1 <0>        -0.2258
     10 N2          6.3234   -0.2629   -3.5910 N.2       1 <0>        -0.3101
     11 C8          7.0635   -0.7075   -4.5539 C.2       1 <0>         0.1785
     12 C9          8.5225   -0.4762   -4.7780 C.ar      1 <0>        -0.0763
     13 C10         9.3591    0.5473   -4.3367 C.ar      1 <0>        -0.0681
     14 C11        10.6955    0.5453   -4.6770 C.ar      1 <0>        -0.1240
     15 C12        11.2091   -0.4749   -5.4582 C.ar      1 <0>        -0.0863
     16 C13        10.3889   -1.4953   -5.9016 C.ar      1 <0>        -0.1039
     17 C14         9.0488   -1.5113   -5.5736 C.ar      1 <0>        -0.0442
     18 C15         7.9310   -2.4415   -5.8898 C.3       1 <0>        -0.0437
     19 C16         6.6602   -1.5816   -5.7041 C.3       1 <0>         0.1220
     20 C17         5.5124   -2.5508   -5.4991 C.3       1 <0>        -0.1250
     21 C18         5.3606   -3.3295   -6.8203 C.3       1 <0>        -0.1149
     22 C19         6.6458   -4.0584   -7.1982 C.3       1 <0>        -0.1190
     23 C20         7.8501   -3.1002   -7.2441 C.3       1 <0>        -0.1031
     24 O2          6.4390   -0.7837   -6.8688 O.3       1 <0>        -0.3467
     25 C21         5.3907    0.1767   -6.7249 C.3       1 <0>         0.0278
     26 O3          2.1628    0.1050   -3.6307 O.3       1 <0>        -0.5449
     27 H1          1.0039    1.9031    0.0027 H         1 <0>         0.0809
     28 H2         -0.5459    1.8868   -0.8726 H         1 <0>         0.0834
     29 H3         -0.5289    1.8773    0.9072 H         1 <0>         0.1073
     30 H4          0.2319   -0.1594    2.1383 H         1 <0>         0.1074
     31 H5          0.7568   -1.6008    1.2356 H         1 <0>         0.0835
     32 H6          1.7647   -0.1336    1.2338 H         1 <0>         0.0815
     33 H7         -1.9605   -0.1726   -0.8702 H         1 <0>         0.0832
     34 H8         -1.4185   -1.6235    0.0069 H         1 <0>         0.0831
     35 H9         -1.9435   -0.1821    0.9097 H         1 <0>         0.1077
     36 H10         0.7033   -1.4867   -1.2121 H         1 <0>         0.4281
     37 H11         2.0530    1.1205   -1.2110 H         1 <0>         0.1420
     38 H12         2.5950   -0.3304   -0.3340 H         1 <0>         0.1478
     39 H13         2.7213   -1.5498   -2.5270 H         1 <0>         0.1315
     40 H14         4.3186    1.0490   -2.4647 H         1 <0>         0.0716
     41 H15         4.7039   -0.3970   -1.5010 H         1 <0>         0.0767
     42 H16         8.9598    1.3443   -3.7270 H         1 <0>         0.1255
     43 H17        11.3412    1.3401   -4.3341 H         1 <0>         0.1337
     44 H18        12.2562   -0.4740   -5.7226 H         1 <0>         0.1343
     45 H19        10.8004   -2.2866   -6.5106 H         1 <0>         0.1313
     46 H20         7.9062   -3.2197   -5.1269 H         1 <0>         0.0937
     47 H21         5.7435   -3.2374   -4.6847 H         1 <0>         0.0735
     48 H22         4.5955   -2.0037   -5.2799 H         1 <0>         0.0785
     49 H23         4.5572   -4.0583   -6.7128 H         1 <0>         0.0637
     50 H24         5.1009   -2.6315   -7.6162 H         1 <0>         0.0709
     51 H25         6.8366   -4.8437   -6.4667 H         1 <0>         0.0609
     52 H26         6.5200   -4.5135   -8.1807 H         1 <0>         0.0702
     53 H27         7.7104   -2.3450   -8.0175 H         1 <0>         0.0847
     54 H28         8.7605   -3.6677   -7.4368 H         1 <0>         0.0724
     55 H29         4.4550   -0.3371   -6.5046 H         1 <0>         0.0469
     56 H30         5.6317    0.8583   -5.9092 H         1 <0>         0.0352
     57 H31         5.2857    0.7415   -7.6513 H         1 <0>         0.0911
     58 H32         2.1814    1.0716   -3.6522 H         1 <0>         0.3899
     59 H33         0.2017   -0.1436   -2.0240 H         1 <0>         0.4316
@<TRIPOS>BOND
     1    1    2 1
     2    1   27 1
     3    1   28 1
     4    1   29 1
     5    2    3 1
     6    2    4 1
     7    2    5 1
     8    3   30 1
     9    3   31 1
    10    3   32 1
    11    4   33 1
    12    4   34 1
    13    4   35 1
    14    5    6 1
    15    5   36 1
    16    5   59 1
    17    6    7 1
    18    6   37 1
    19    6   38 1
    20    7    8 1
    21    7   26 1
    22    7   39 1
    23    8    9 1
    24    8   40 1
    25    8   41 1
    26    9   10 1
    27   10   11 2
    28   11   19 1
    29   11   12 1
    30   12   17 ar
    31   12   13 ar
    32   13   14 ar
    33   13   42 1
    34   14   15 ar
    35   14   43 1
    36   15   16 ar
    37   15   44 1
    38   16   17 ar
    39   16   45 1
    40   17   18 1
    41   18   23 1
    42   18   19 1
    43   18   46 1
    44   19   20 1
    45   19   24 1
    46   20   21 1
    47   20   47 1
    48   20   48 1
    49   21   22 1
    50   21   49 1
    51   21   50 1
    52   22   23 1
    53   22   51 1
    54   22   52 1
    55   23   53 1
    56   23   54 1
    57   24   25 1
    58   25   55 1
    59   25   56 1
    60   25   57 1
    61   26   58 1
@<TRIPOS>MOLECULE
CHEMBL320761
   59    61     0     0     0
SMALL
USER_CHARGES

@<TRIPOS>ATOM
      1 C1         -0.0187    1.5258    0.0104 C.3       1 <0>        -0.1797
      2 C2          0.0021   -0.0041    0.0020 C.3       1 <0>         0.0549
      3 C3          0.7421   -0.5109    1.2415 C.3       1 <0>        -0.1793
      4 C4         -1.4333   -0.5336    0.0129 C.3       1 <0>        -0.1775
      5 N1          0.6897   -0.4778   -1.2066 N.4       1 <0>        -0.4977
      6 C5          2.0678    0.0307   -1.2170 C.3       1 <0>        -0.0495
      7 C6          2.7840   -0.4628   -2.4758 C.3       1 <0>         0.0883
      8 C7          4.2193    0.0668   -2.4867 C.3       1 <0>         0.0448
      9 O1          4.8516   -0.2959   -3.7158 O.3       1 <0>        -0.2258
     10 N2          6.1913    0.1489   -3.8275 N.2       1 <0>        -0.3102
     11 C8          6.8737   -0.1159   -4.8937 C.2       1 <0>         0.1781
     12 C9          8.2885    0.2550   -5.1991 C.ar      1 <0>        -0.0759
     13 C10         9.3506    0.5641   -4.3513 C.ar      1 <0>        -0.0683
     14 C11        10.5854    0.8835   -4.8755 C.ar      1 <0>        -0.1239
     15 C12        10.7726    0.8972   -6.2465 C.ar      1 <0>        -0.0864
     16 C13         9.7270    0.5907   -7.0970 C.ar      1 <0>        -0.1039
     17 C14         8.4836    0.2687   -6.5930 C.ar      1 <0>        -0.0443
     18 C15         7.1892   -0.1015   -7.2270 C.3       1 <0>        -0.0426
     19 C16         6.4328   -0.8729   -6.1112 C.3       1 <0>         0.1217
     20 C17         4.9632   -0.8390   -6.4825 C.3       1 <0>        -0.1249
     21 C18         4.8244   -1.6582   -7.7805 C.3       1 <0>        -0.1143
     22 C19         5.6957   -1.0972   -8.8994 C.3       1 <0>        -0.1187
     23 C20         7.1683   -0.9555   -8.4700 C.3       1 <0>        -0.1043
     24 O2          6.9003   -2.2215   -6.0428 O.3       1 <0>        -0.3466
     25 C21         6.3956   -2.9556   -4.9255 C.3       1 <0>         0.0280
     26 O3          2.8033   -1.8916   -2.4837 O.3       1 <0>        -0.5455
     27 H1          1.0039    1.9031    0.0027 H         1 <0>         0.0815
     28 H2         -0.5459    1.8868   -0.8726 H         1 <0>         0.0836
     29 H3         -0.5289    1.8773    0.9072 H         1 <0>         0.1074
     30 H4          0.2319   -0.1594    2.1383 H         1 <0>         0.1074
     31 H5          0.7568   -1.6008    1.2356 H         1 <0>         0.0833
     32 H6          1.7647   -0.1336    1.2338 H         1 <0>         0.0810
     33 H7         -1.9605   -0.1726   -0.8702 H         1 <0>         0.0832
     34 H8         -1.4185   -1.6235    0.0069 H         1 <0>         0.0831
     35 H9         -1.9435   -0.1821    0.9097 H         1 <0>         0.1077
     36 H10         0.7033   -1.4867   -1.2121 H         1 <0>         0.4312
     37 H11         2.0530    1.1205   -1.2110 H         1 <0>         0.1482
     38 H12         2.5950   -0.3304   -0.3340 H         1 <0>         0.1416
     39 H13         2.2568   -0.1017   -3.3589 H         1 <0>         0.1325
     40 H14         4.2068    1.1525   -2.3912 H         1 <0>         0.0770
     41 H15         4.7722   -0.3649   -1.6524 H         1 <0>         0.0713
     42 H16         9.2061    0.5538   -3.2811 H         1 <0>         0.1254
     43 H17        11.4063    1.1234   -4.2161 H         1 <0>         0.1337
     44 H18        11.7407    1.1483   -6.6541 H         1 <0>         0.1342
     45 H19         9.8845    0.6040   -8.1654 H         1 <0>         0.1313
     46 H20         6.6322    0.8133   -7.4291 H         1 <0>         0.0942
     47 H21         4.3666   -1.2902   -5.6898 H         1 <0>         0.0785
     48 H22         4.6442    0.1892   -6.6532 H         1 <0>         0.0736
     49 H23         5.1193   -2.6888   -7.5833 H         1 <0>         0.0708
     50 H24         3.7824   -1.6433   -8.1002 H         1 <0>         0.0641
     51 H25         5.6370   -1.7612   -9.7618 H         1 <0>         0.0708
     52 H26         5.3194   -0.1145   -9.1836 H         1 <0>         0.0594
     53 H27         7.7496   -0.4784   -9.2590 H         1 <0>         0.0738
     54 H28         7.5762   -1.9422   -8.2505 H         1 <0>         0.0826
     55 H29         6.6974   -2.4633   -4.0010 H         1 <0>         0.0352
     56 H30         5.3076   -2.9947   -4.9779 H         1 <0>         0.0469
     57 H31         6.7970   -3.9689   -4.9453 H         1 <0>         0.0911
     58 H32         3.2576   -2.2830   -1.7250 H         1 <0>         0.3894
     59 H33         0.2017   -0.1436   -2.0240 H         1 <0>         0.4284
@<TRIPOS>BOND
     1    1    2 1
     2    1   27 1
     3    1   28 1
     4    1   29 1
     5    2    3 1
     6    2    4 1
     7    2    5 1
     8    3   30 1
     9    3   31 1
    10    3   32 1
    11    4   33 1
    12    4   34 1
    13    4   35 1
    14    5    6 1
    15    5   36 1
    16    5   59 1
    17    6    7 1
    18    6   37 1
    19    6   38 1
    20    7    8 1
    21    7   26 1
    22    7   39 1
    23    8    9 1
    24    8   40 1
    25    8   41 1
    26    9   10 1
    27   10   11 2
    28   11   19 1
    29   11   12 1
    30   12   17 ar
    31   12   13 ar
    32   13   14 ar
    33   13   42 1
    34   14   15 ar
    35   14   43 1
    36   15   16 ar
    37   15   44 1
    38   16   17 ar
    39   16   45 1
    40   17   18 1
    41   18   23 1
    42   18   19 1
    43   18   46 1
    44   19   20 1
    45   19   24 1
    46   20   21 1
    47   20   47 1
    48   20   48 1
    49   21   22 1
    50   21   49 1
    51   21   50 1
    52   22   23 1
    53   22   51 1
    54   22   52 1
    55   23   53 1
    56   23   54 1
    57   24   25 1
    58   25   55 1
    59   25   56 1
    60   25   57 1
    61   26   58 1
@<TRIPOS>MOLECULE
CHEMBL320761
   59    61     0     0     0
SMALL
USER_CHARGES

@<TRIPOS>ATOM
      1 C1         -0.0034    1.6438   -0.0091 C.3       1 <0>        -0.1797
      2 C2         -0.0306    0.1145   -0.0483 C.3       1 <0>         0.0549
      3 C3          0.6831   -0.4401    1.1862 C.3       1 <0>        -0.1792
      4 C4         -1.4819   -0.3697   -0.0589 C.3       1 <0>        -0.1775
      5 N1          0.6516   -0.3564   -1.2611 N.4       1 <0>        -0.4978
      6 C5          2.0451    0.1085   -1.2509 C.3       1 <0>        -0.0496
      7 C6          2.7556   -0.3820   -2.5140 C.3       1 <0>         0.0877
      8 C7          4.2069    0.1022   -2.5034 C.3       1 <0>         0.0399
      9 O1          4.8375   -0.2556   -3.7349 O.3       1 <0>        -0.2240
     10 N2          6.1913    0.1489   -3.8275 N.2       1 <0>        -0.3132
     11 C8          6.8737   -0.1159   -4.8937 C.2       1 <0>         0.1788
     12 C9          8.2450    0.3466   -5.2254 C.ar      1 <0>        -0.0770
     13 C10         8.9980    1.4081   -4.7153 C.ar      1 <0>        -0.0664
     14 C11        10.2805    1.6235   -5.1732 C.ar      1 <0>        -0.1255
     15 C12        10.8249    0.7923   -6.1364 C.ar      1 <0>        -0.0852
     16 C13        10.0814   -0.2529   -6.6551 C.ar      1 <0>        -0.1069
     17 C14         8.7932   -0.4715   -6.2137 C.ar      1 <0>        -0.0516
     18 C15         7.7523   -1.4917   -6.6501 C.3       1 <0>        -0.0346
     19 C16         6.4501   -0.9674   -6.0669 C.3       1 <0>         0.1455
     20 C17         5.3793   -1.9545   -5.7457 C.3       1 <0>        -0.1521
     21 C18         5.8540   -3.3085   -5.2584 C.3       1 <0>        -0.1074
     22 C19         6.9976   -3.8210   -6.1319 C.3       1 <0>        -0.1250
     23 C20         8.1481   -2.8354   -6.0373 C.3       1 <0>        -0.1085
     24 O2          5.8996   -0.0752   -7.0379 O.3       1 <0>        -0.3684
     25 C21         4.7487    0.6399   -6.5837 C.3       1 <0>         0.0251
     26 O3          2.7302   -1.8103   -2.5507 O.3       1 <0>        -0.5450
     27 H1          1.0305    1.9887   -0.0015 H         1 <0>         0.0815
     28 H2         -0.5118    2.0389   -0.8886 H         1 <0>         0.0835
     29 H3         -0.5096    1.9932    0.8908 H         1 <0>         0.1074
     30 H4          0.1769   -0.0907    2.0861 H         1 <0>         0.1073
     31 H5          0.6637   -1.5296    1.1582 H         1 <0>         0.0833
     32 H6          1.7170   -0.0951    1.1938 H         1 <0>         0.0810
     33 H7         -1.9903    0.0254   -0.9384 H         1 <0>         0.0831
     34 H8         -1.5013   -1.4591   -0.0869 H         1 <0>         0.0832
     35 H9         -1.9881   -0.0203    0.8409 H         1 <0>         0.1077
     36 H10         0.6337   -1.3649   -1.2870 H         1 <0>         0.4312
     37 H11         2.0644    1.1980   -1.2230 H         1 <0>         0.1481
     38 H12         2.5535   -0.2866   -0.3714 H         1 <0>         0.1417
     39 H13         2.2472    0.0131   -3.3935 H         1 <0>         0.1317
     40 H14         4.2276    1.1857   -2.3860 H         1 <0>         0.0770
     41 H15         4.7392   -0.3634   -1.6740 H         1 <0>         0.0722
     42 H16         8.5756    2.0588   -3.9639 H         1 <0>         0.1264
     43 H17        10.8621    2.4438   -4.7791 H         1 <0>         0.1334
     44 H18        11.8333    0.9602   -6.4846 H         1 <0>         0.1346
     45 H19        10.5103   -0.8984   -7.4072 H         1 <0>         0.1329
     46 H20         7.7049   -1.5600   -7.7369 H         1 <0>         0.1124
     47 H21         4.7368   -1.5225   -4.9786 H         1 <0>         0.0987
     48 H22         4.7768   -2.1069   -6.6412 H         1 <0>         0.0780
     49 H23         6.2002   -3.2191   -4.2287 H         1 <0>         0.0564
     50 H24         5.0257   -4.0159   -5.2987 H         1 <0>         0.0695
     51 H25         7.3178   -4.8016   -5.7799 H         1 <0>         0.0734
     52 H26         6.6652   -3.8924   -7.1676 H         1 <0>         0.0704
     53 H27         9.0095   -3.2371   -6.5710 H         1 <0>         0.0795
     54 H28         8.4078   -2.6927   -4.9884 H         1 <0>         0.0648
     55 H29         3.9640   -0.0674   -6.3153 H         1 <0>         0.0465
     56 H30         5.0132    1.2374   -5.7112 H         1 <0>         0.0386
     57 H31         4.3912    1.2951   -7.3780 H         1 <0>         0.0892
     58 H32         3.1658   -2.2309   -1.7967 H         1 <0>         0.3898
     59 H33         0.1810    0.0093   -2.0752 H         1 <0>         0.4282
@<TRIPOS>BOND
     1    1    2 1
     2    1   27 1
     3    1   28 1
     4    1   29 1
     5    2    3 1
     6    2    4 1
     7    2    5 1
     8    3   30 1
     9    3   31 1
    10    3   32 1
    11    4   33 1
    12    4   34 1
    13    4   35 1
    14    5    6 1
    15    5   36 1
    16    5   59 1
    17    6    7 1
    18    6   37 1
    19    6   38 1
    20    7    8 1
    21    7   26 1
    22    7   39 1
    23    8    9 1
    24    8   40 1
    25    8   41 1
    26    9   10 1
    27   10   11 2
    28   11   19 1
    29   11   12 1
    30   12   17 ar
    31   12   13 ar
    32   13   14 ar
    33   13   42 1
    34   14   15 ar
    35   14   43 1
    36   15   16 ar
    37   15   44 1
    38   16   17 ar
    39   16   45 1
    40   17   18 1
    41   18   23 1
    42   18   19 1
    43   18   46 1
    44   19   20 1
    45   19   24 1
    46   20   21 1
    47   20   47 1
    48   20   48 1
    49   21   22 1
    50   21   49 1
    51   21   50 1
    52   22   23 1
    53   22   51 1
    54   22   52 1
    55   23   53 1
    56   23   54 1
    57   24   25 1
    58   25   55 1
    59   25   56 1
    60   25   57 1
    61   26   58 1
@<TRIPOS>MOLECULE
CHEMBL320761
   59    61     0     0     0
SMALL
USER_CHARGES

@<TRIPOS>ATOM
      1 C1         -0.1923    1.8730   -0.2267 C.3       1 <0>        -0.1796
      2 C2         -0.3458    0.3600   -0.3944 C.3       1 <0>         0.0548
      3 C3          0.2331   -0.3503    0.8309 C.3       1 <0>        -0.1791
      4 C4         -1.8288    0.0101   -0.5332 C.3       1 <0>        -0.1774
      5 N1          0.3747   -0.0749   -1.5984 N.4       1 <0>        -0.4976
      6 C5          1.7985    0.2609   -1.4650 C.3       1 <0>        -0.0496
      7 C6          2.5490   -0.1920   -2.7190 C.3       1 <0>         0.0900
      8 C7          4.0320    0.1578   -2.5801 C.3       1 <0>         0.0438
      9 O1          4.7120   -0.1587   -3.7965 O.3       1 <0>        -0.2102
     10 N2          6.0983    0.1287   -3.7729 N.2       1 <0>        -0.3170
     11 C8          6.8396   -0.1775   -4.7875 C.2       1 <0>         0.1621
     12 C9          8.2738    0.1458   -4.9774 C.ar      1 <0>        -0.0825
     13 C10         9.0823    1.1059   -4.3622 C.ar      1 <0>        -0.0654
     14 C11        10.4185    1.1944   -4.6897 C.ar      1 <0>        -0.1244
     15 C12        10.9628    0.3345   -5.6273 C.ar      1 <0>        -0.0845
     16 C13        10.1668   -0.6079   -6.2527 C.ar      1 <0>        -0.1068
     17 C14         8.8242   -0.6979   -5.9458 C.ar      1 <0>        -0.0517
     18 C15         7.7236   -1.5579   -6.5118 C.3       1 <0>        -0.0757
     19 C16         6.4203   -0.9524   -6.0342 C.3       1 <0>         0.1506
     20 C17         5.7835    0.0258   -7.0037 C.3       1 <0>        -0.0934
     21 C18         5.8434   -0.4636   -8.4443 C.3       1 <0>        -0.1165
     22 C19         7.3123   -0.6696   -8.8291 C.3       1 <0>        -0.1222
     23 C20         7.8710   -1.8011   -7.9865 C.3       1 <0>        -0.1038
     24 O2          5.4998   -1.9869   -5.6814 O.3       1 <0>        -0.3507
     25 C21         5.9792   -2.8698   -4.6651 C.3       1 <0>         0.0240
     26 O3          2.4056   -1.6052   -2.8756 O.3       1 <0>        -0.5421
     27 H1          0.8642    2.1222   -0.1278 H         1 <0>         0.0814
     28 H2         -0.6047    2.3790   -1.0996 H         1 <0>         0.0836
     29 H3         -0.7269    2.1957    0.6667 H         1 <0>         0.1071
     30 H4         -0.3015   -0.0276    1.7243 H         1 <0>         0.1070
     31 H5          0.1237   -1.4282    0.7115 H         1 <0>         0.0832
     32 H6          1.2896   -0.1011    0.9299 H         1 <0>         0.0808
     33 H7         -2.2413    0.5161   -1.4061 H         1 <0>         0.0832
     34 H8         -1.9382   -1.0678   -0.6527 H         1 <0>         0.0831
     35 H9         -2.3635    0.3328    0.3601 H         1 <0>         0.1074
     36 H10         0.2734   -1.0727   -1.7089 H         1 <0>         0.4313
     37 H11         1.9080    1.3388   -1.3456 H         1 <0>         0.1476
     38 H12         2.2110   -0.2451   -0.5921 H         1 <0>         0.1406
     39 H13         2.1365    0.3140   -3.5919 H         1 <0>         0.1325
     40 H14         4.1362    1.2227   -2.3722 H         1 <0>         0.0748
     41 H15         4.4656   -0.4164   -1.7614 H         1 <0>         0.0681
     42 H16         8.6601    1.7787   -3.6304 H         1 <0>         0.1273
     43 H17        11.0418    1.9368   -4.2137 H         1 <0>         0.1341
     44 H18        12.0127    0.3997   -5.8718 H         1 <0>         0.1349
     45 H19        10.5974   -1.2756   -6.9842 H         1 <0>         0.1322
     46 H20         7.8021   -2.5274   -6.0199 H         1 <0>         0.0913
     47 H21         4.7404    0.1721   -6.7235 H         1 <0>         0.0764
     48 H22         6.3033    0.9813   -6.9336 H         1 <0>         0.0767
     49 H23         5.3060   -1.4078   -8.5327 H         1 <0>         0.0717
     50 H24         5.3934    0.2797   -9.1024 H         1 <0>         0.0720
     51 H25         7.3826   -0.9286   -9.8856 H         1 <0>         0.0730
     52 H26         7.8743    0.2442   -8.6361 H         1 <0>         0.0656
     53 H27         8.9285   -1.9277   -8.2183 H         1 <0>         0.0739
     54 H28         7.3437   -2.7191   -8.2462 H         1 <0>         0.0707
     55 H29         6.8152   -3.4513   -5.0537 H         1 <0>         0.0480
     56 H30         6.3101   -2.2879   -3.8049 H         1 <0>         0.0386
     57 H31         5.1779   -3.5435   -4.3616 H         1 <0>         0.0911
     58 H32         2.7520   -2.1202   -2.1341 H         1 <0>         0.3871
     59 H33        -0.0071    0.3934   -2.4064 H         1 <0>         0.4285
@<TRIPOS>BOND
     1    1    2 1
     2    1   27 1
     3    1   28 1
     4    1   29 1
     5    2    3 1
     6    2    4 1
     7    2    5 1
     8    3   30 1
     9    3   31 1
    10    3   32 1
    11    4   33 1
    12    4   34 1
    13    4   35 1
    14    5    6 1
    15    5   36 1
    16    5   59 1
    17    6    7 1
    18    6   37 1
    19    6   38 1
    20    7    8 1
    21    7   26 1
    22    7   39 1
    23    8    9 1
    24    8   40 1
    25    8   41 1
    26    9   10 1
    27   10   11 2
    28   11   19 1
    29   11   12 1
    30   12   17 ar
    31   12   13 ar
    32   13   14 ar
    33   13   42 1
    34   14   15 ar
    35   14   43 1
    36   15   16 ar
    37   15   44 1
    38   16   17 ar
    39   16   45 1
    40   17   18 1
    41   18   23 1
    42   18   19 1
    43   18   46 1
    44   19   20 1
    45   19   24 1
    46   20   21 1
    47   20   47 1
    48   20   48 1
    49   21   22 1
    50   21   49 1
    51   21   50 1
    52   22   23 1
    53   22   51 1
    54   22   52 1
    55   23   53 1
    56   23   54 1
    57   24   25 1
    58   25   55 1
    59   25   56 1
    60   25   57 1
    61   26   58 1
@<TRIPOS>MOLECULE
CHEMBL320761
   59    61     0     0     0
SMALL
USER_CHARGES

@<TRIPOS>ATOM
      1 C1         -0.0187    1.5258    0.0104 C.3       1 <0>        -0.1797
      2 C2          0.0021   -0.0041    0.0020 C.3       1 <0>         0.0549
      3 C3          0.7421   -0.5109    1.2415 C.3       1 <0>        -0.1793
      4 C4         -1.4333   -0.5336    0.0129 C.3       1 <0>        -0.1775
      5 N1          0.6897   -0.4778   -1.2066 N.4       1 <0>        -0.4977
      6 C5          2.0678    0.0307   -1.2170 C.3       1 <0>        -0.0496
      7 C6          2.7840   -0.4628   -2.4758 C.3       1 <0>         0.0885
      8 C7          4.2193    0.0668   -2.4867 C.3       1 <0>         0.0447
      9 O1          4.8516   -0.2959   -3.7158 O.3       1 <0>        -0.2257
     10 N2          6.1913    0.1489   -3.8275 N.2       1 <0>        -0.3100
     11 C8          6.8737   -0.1159   -4.8937 C.2       1 <0>         0.1785
     12 C9          8.2885    0.2550   -5.1991 C.ar      1 <0>        -0.0764
     13 C10         9.0883    1.2800   -4.6971 C.ar      1 <0>        -0.0682
     14 C11        10.3870    1.4244   -5.1375 C.ar      1 <0>        -0.1241
     15 C12        10.8995    0.5502   -6.0799 C.ar      1 <0>        -0.0863
     16 C13        10.1156   -0.4701   -6.5847 C.ar      1 <0>        -0.1040
     17 C14         8.8133   -0.6312   -6.1585 C.ar      1 <0>        -0.0441
     18 C15         7.7385   -1.6012   -6.5030 C.3       1 <0>        -0.0436
     19 C16         6.4328   -0.8729   -6.1112 C.3       1 <0>         0.1211
     20 C17         5.3761   -1.9471   -5.9431 C.3       1 <0>        -0.1224
     21 C18         5.1638   -2.5691   -7.3370 C.3       1 <0>        -0.1151
     22 C19         6.4582   -3.1434   -7.9033 C.3       1 <0>        -0.1190
     23 C20         7.5856   -2.0949   -7.9199 C.3       1 <0>        -0.1030
     24 O2          6.0574    0.0406   -7.1440 O.3       1 <0>        -0.3462
     25 C21         4.9623    0.8909   -6.7980 C.3       1 <0>         0.0274
     26 O3          2.8033   -1.8916   -2.4837 O.3       1 <0>        -0.5449
     27 H1          1.0039    1.9031    0.0027 H         1 <0>         0.0815
     28 H2         -0.5459    1.8868   -0.8726 H         1 <0>         0.0835
     29 H3         -0.5289    1.8773    0.9072 H         1 <0>         0.1074
     30 H4          0.2319   -0.1594    2.1383 H         1 <0>         0.1074
     31 H5          0.7568   -1.6008    1.2356 H         1 <0>         0.0834
     32 H6          1.7647   -0.1336    1.2338 H         1 <0>         0.0810
     33 H7         -1.9605   -0.1726   -0.8702 H         1 <0>         0.0831
     34 H8         -1.4185   -1.6235    0.0069 H         1 <0>         0.0832
     35 H9         -1.9435   -0.1821    0.9097 H         1 <0>         0.1077
     36 H10         0.7033   -1.4867   -1.2121 H         1 <0>         0.4313
     37 H11         2.0530    1.1205   -1.2110 H         1 <0>         0.1480
     38 H12         2.5950   -0.3304   -0.3340 H         1 <0>         0.1418
     39 H13         2.2568   -0.1017   -3.3589 H         1 <0>         0.1315
     40 H14         4.2068    1.1525   -2.3912 H         1 <0>         0.0760
     41 H15         4.7722   -0.3649   -1.6524 H         1 <0>         0.0723
     42 H16         8.6898    1.9632   -3.9617 H         1 <0>         0.1255
     43 H17        11.0042    2.2201   -4.7471 H         1 <0>         0.1337
     44 H18        11.9172    0.6656   -6.4224 H         1 <0>         0.1343
     45 H19        10.5259   -1.1468   -7.3197 H         1 <0>         0.1313
     46 H20         7.8333   -2.4657   -5.8460 H         1 <0>         0.0941
     47 H21         5.7235   -2.7071   -5.2432 H         1 <0>         0.0748
     48 H22         4.4464   -1.5045   -5.5854 H         1 <0>         0.0772
     49 H23         4.4246   -3.3666   -7.2613 H         1 <0>         0.0642
     50 H24         4.7889   -1.8023   -8.0149 H         1 <0>         0.0700
     51 H25         6.7651   -3.9942   -7.2949 H         1 <0>         0.0612
     52 H26         6.2791   -3.4843   -8.9230 H         1 <0>         0.0701
     53 H27         7.3281   -1.2647   -8.5775 H         1 <0>         0.0844
     54 H28         8.5126   -2.5615   -8.2534 H         1 <0>         0.0724
     55 H29         4.0865    0.2822   -6.5731 H         1 <0>         0.0437
     56 H30         5.2260    1.4853   -5.9232 H         1 <0>         0.0357
     57 H31         4.7389    1.5540   -7.6339 H         1 <0>         0.0919
     58 H32         3.2576   -2.2830   -1.7250 H         1 <0>         0.3899
     59 H33         0.2017   -0.1436   -2.0240 H         1 <0>         0.4282
@<TRIPOS>BOND
     1    1    2 1
     2    1   27 1
     3    1   28 1
     4    1   29 1
     5    2    3 1
     6    2    4 1
     7    2    5 1
     8    3   30 1
     9    3   31 1
    10    3   32 1
    11    4   33 1
    12    4   34 1
    13    4   35 1
    14    5    6 1
    15    5   36 1
    16    5   59 1
    17    6    7 1
    18    6   37 1
    19    6   38 1
    20    7    8 1
    21    7   26 1
    22    7   39 1
    23    8    9 1
    24    8   40 1
    25    8   41 1
    26    9   10 1
    27   10   11 2
    28   11   19 1
    29   11   12 1
    30   12   17 ar
    31   12   13 ar
    32   13   14 ar
    33   13   42 1
    34   14   15 ar
    35   14   43 1
    36   15   16 ar
    37   15   44 1
    38   16   17 ar
    39   16   45 1
    40   17   18 1
    41   18   23 1
    42   18   19 1
    43   18   46 1
    44   19   20 1
    45   19   24 1
    46   20   21 1
    47   20   47 1
    48   20   48 1
    49   21   22 1
    50   21   49 1
    51   21   50 1
    52   22   23 1
    53   22   51 1
    54   22   52 1
    55   23   53 1
    56   23   54 1
    57   24   25 1
    58   25   55 1
    59   25   56 1
    60   25   57 1
    61   26   58 1
@<TRIPOS>MOLECULE
CHEMBL421871
   59    62     0     0     0
SMALL
USER_CHARGES

@<TRIPOS>ATOM
      1 C1         -0.0173    1.4248    0.0099 C.3       1 <0>         0.0227
      2 O1          0.0021   -0.0041    0.0020 O.3       1 <0>        -0.2974
      3 C2         -1.2011   -0.6379    0.0101 C.ar      1 <0>         0.1541
      4 C3         -2.3720    0.1005    0.0195 C.ar      1 <0>        -0.2196
      5 C4         -3.6047   -0.5493    0.0278 C.ar      1 <0>         0.0071
      6 C5         -3.6567   -1.9418    0.0266 C.ar      1 <0>        -0.2205
      7 C6         -2.4842   -2.6776    0.0171 C.ar      1 <0>         0.1532
      8 C7         -1.2547   -2.0277    0.0031 C.ar      1 <0>         0.0420
      9 O2         -0.1031   -2.7521   -0.0122 O.3       1 <0>        -0.3120
     10 C8          0.4586   -3.1044    1.2537 C.3       1 <0>         0.0349
     11 O3         -2.5347   -4.0366    0.0164 O.3       1 <0>        -0.2975
     12 C9         -3.8311   -4.6377    0.0257 C.3       1 <0>         0.0234
     13 C10        -4.8604    0.2407    0.0384 C.ar      1 <0>        -0.0199
     14 C11        -4.8106    1.6333    0.0344 C.ar      1 <0>        -0.0969
     15 C12        -5.9819    2.3632    0.0443 C.ar      1 <0>        -0.0975
     16 C13        -7.2037    1.7149    0.0588 C.ar      1 <0>        -0.1274
     17 C14        -7.2591    0.3327    0.0633 C.ar      1 <0>        -0.1328
     18 C15        -6.0942   -0.4072    0.0467 C.ar      1 <0>        -0.0987
     19 C16        -8.4792    2.5173    0.0701 C.3       1 <0>        -0.0997
     20 C17        -8.9260    2.7852   -1.3685 C.3       1 <0>         0.0908
     21 C18       -10.1137    3.7115   -1.3553 C.ar      1 <0>        -0.1220
     22 C19       -10.1123    4.7756   -0.4648 C.ar      1 <0>        -0.1063
     23 C20       -11.1814    5.6522   -0.4205 C.ar      1 <0>         0.0983
     24 C21       -12.2639    5.4648   -1.2754 C.ar      1 <0>         0.1141
     25 C22       -12.2612    4.4021   -2.1612 C.ar      1 <0>        -0.1187
     26 C23       -11.1874    3.5255   -2.2002 C.ar      1 <0>        -0.0794
     27 C24       -11.2300    2.3762   -3.1752 C.3       1 <0>        -0.1065
     28 C25        -9.8284    1.7888   -3.3449 C.3       1 <0>        -0.0034
     29 N1         -9.2702    1.5143   -2.0122 N.4       1 <0>        -0.5052
     30 O4        -13.3191    6.3219   -1.2397 O.3       1 <0>        -0.4818
     31 O5        -11.1749    6.6931    0.4546 O.3       1 <0>        -0.4809
     32 H1          1.0053    1.8021    0.0021 H         1 <0>         0.1083
     33 H2         -0.5445    1.7859   -0.8732 H         1 <0>         0.0581
     34 H3         -0.5275    1.7763    0.9067 H         1 <0>         0.0579
     35 H4         -2.3302    1.1797    0.0208 H         1 <0>         0.1389
     36 H5         -4.6114   -2.4467    0.0334 H         1 <0>         0.1380
     37 H6         -0.2576   -3.7048    1.8146 H         1 <0>         0.0463
     38 H7          1.3718   -3.6790    1.0987 H         1 <0>         0.0977
     39 H8          0.6902   -2.1981    1.8133 H         1 <0>         0.0465
     40 H9         -3.7284   -5.7229    0.0240 H         1 <0>         0.1079
     41 H10        -4.3701   -4.3251    0.9200 H         1 <0>         0.0573
     42 H11        -4.3835   -4.3237   -0.8599 H         1 <0>         0.0571
     43 H12        -3.8572    2.1406    0.0238 H         1 <0>         0.1341
     44 H13        -5.9445    3.4425    0.0412 H         1 <0>         0.1330
     45 H14        -8.2158   -0.1683    0.0750 H         1 <0>         0.1251
     46 H15        -6.1386   -1.4863    0.0451 H         1 <0>         0.1337
     47 H16        -9.2553    1.9588    0.5935 H         1 <0>         0.1022
     48 H17        -8.3075    3.4654    0.5797 H         1 <0>         0.1230
     49 H18        -8.1098    3.2561   -1.9164 H         1 <0>         0.1496
     50 H19        -9.2717    4.9202    0.1977 H         1 <0>         0.1467
     51 H20       -13.0997    4.2543   -2.8256 H         1 <0>         0.1468
     52 H21       -11.9026    1.6058   -2.7980 H         1 <0>         0.1077
     53 H22       -11.5929    2.7322   -4.1394 H         1 <0>         0.1264
     54 H23        -9.8867    0.8619   -3.9154 H         1 <0>         0.1430
     55 H24        -9.1928    2.5038   -3.8673 H         1 <0>         0.1358
     56 H25        -8.4410    0.9467   -2.1038 H         1 <0>         0.4335
     57 H26       -13.2325    7.0776   -1.8368 H         1 <0>         0.4012
     58 H27       -10.7816    7.5024    0.1003 H         1 <0>         0.3993
     59 H28        -9.9545    1.0271   -1.4532 H         1 <0>         0.4283
@<TRIPOS>BOND
     1    1    2 1
     2    1   32 1
     3    1   33 1
     4    1   34 1
     5    2    3 1
     6    3    8 ar
     7    3    4 ar
     8    4    5 ar
     9    4   35 1
    10    5    6 ar
    11    5   13 1
    12    6    7 ar
    13    6   36 1
    14    7    8 ar
    15    7   11 1
    16    8    9 1
    17    9   10 1
    18   10   37 1
    19   10   38 1
    20   10   39 1
    21   11   12 1
    22   12   40 1
    23   12   41 1
    24   12   42 1
    25   13   18 ar
    26   13   14 ar
    27   14   15 ar
    28   14   43 1
    29   15   16 ar
    30   15   44 1
    31   16   17 ar
    32   16   19 1
    33   17   18 ar
    34   17   45 1
    35   18   46 1
    36   19   20 1
    37   19   47 1
    38   19   48 1
    39   20   29 1
    40   20   21 1
    41   20   49 1
    42   21   26 ar
    43   21   22 ar
    44   22   23 ar
    45   22   50 1
    46   23   24 ar
    47   23   31 1
    48   24   25 ar
    49   24   30 1
    50   25   26 ar
    51   25   51 1
    52   26   27 1
    53   27   28 1
    54   27   52 1
    55   27   53 1
    56   28   29 1
    57   28   54 1
    58   28   55 1
    59   29   56 1
    60   29   59 1
    61   30   57 1
    62   31   58 1
@<TRIPOS>MOLECULE
CHEMBL421871
   58    61     0     0     0
SMALL
USER_CHARGES

@<TRIPOS>ATOM
      1 C1         -0.0173    1.4248    0.0099 C.3       1 <0>         0.0234
      2 O1          0.0021   -0.0041    0.0020 O.3       1 <0>        -0.3011
      3 C2          0.6263   -0.6188    1.0422 C.ar      1 <0>         0.1532
      4 C3          1.2010    0.1378    2.0490 C.ar      1 <0>        -0.2262
      5 C4          1.8405   -0.4924    3.1146 C.ar      1 <0>         0.0312
      6 C5          1.9004   -1.8837    3.1652 C.ar      1 <0>        -0.2256
      7 C6          1.3247   -2.6377    2.1570 C.ar      1 <0>         0.1535
      8 C7          0.6819   -2.0074    1.0969 C.ar      1 <0>         0.0283
      9 O2          0.1113   -2.7499    0.1098 O.3       1 <0>        -0.3122
     10 C8          0.9355   -3.0855   -1.0083 C.3       1 <0>         0.0349
     11 O3          1.3834   -3.9955    2.2058 O.3       1 <0>        -0.3012
     12 C9          2.0544   -4.5761    3.3261 C.3       1 <0>         0.0232
     13 C10         2.4574    0.3171    4.1941 C.ar      1 <0>        -0.0527
     14 C11         2.3940    1.7084    4.1481 C.ar      1 <0>        -0.1015
     15 C12         2.9696    2.4565    5.1550 C.ar      1 <0>        -0.1155
     16 C13         3.6090    1.8277    6.2082 C.ar      1 <0>        -0.0783
     17 C14         3.6753    0.4470    6.2587 C.ar      1 <0>        -0.1086
     18 C15         3.0973   -0.3112    5.2607 C.ar      1 <0>        -0.1014
     19 C16         4.2360    2.6500    7.3044 C.3       1 <0>        -0.0759
     20 C17         3.2070    2.8960    8.4096 C.3       1 <0>         0.1366
     21 C18         3.7893    3.8388    9.4302 C.ar      1 <0>        -0.0676
     22 C19         4.5154    4.9317    8.9781 C.ar      1 <0>        -0.1265
     23 C20         5.0654    5.8273    9.8772 C.ar      1 <0>         0.0783
     24 C21         4.8884    5.6296   11.2437 C.ar      1 <0>         0.0837
     25 C22         4.1657    4.5376   11.6897 C.ar      1 <0>        -0.1323
     26 C23         3.6179    3.6412   10.7837 C.ar      1 <0>        -0.0560
     27 C24         2.8484    2.4609   11.3194 C.3       1 <0>        -0.0778
     28 C25         1.9965    1.8452   10.2092 C.3       1 <0>         0.0536
     29 N1          2.8531    1.6177    9.0345 N.3       1 <0>        -0.6784
     30 O4          5.4229    6.5059   12.1358 O.3       1 <0>        -0.4876
     31 O5          5.7765    6.8961    9.4283 O.3       1 <0>        -0.4869
     32 H1          1.0053    1.8021    0.0021 H         1 <0>         0.0574
     33 H2         -0.5445    1.7859   -0.8732 H         1 <0>         0.1046
     34 H3         -0.5275    1.7763    0.9067 H         1 <0>         0.0582
     35 H4          1.1541    1.2160    2.0083 H         1 <0>         0.1381
     36 H5          2.3960   -2.3735    3.9904 H         1 <0>         0.1389
     37 H6          0.3593   -3.6772   -1.7197 H         1 <0>         0.0933
     38 H7          1.2815   -2.1719   -1.4918 H         1 <0>         0.0443
     39 H8          1.7941   -3.6633   -0.6663 H         1 <0>         0.0445
     40 H9          3.0902   -4.2373    3.3447 H         1 <0>         0.0576
     41 H10         1.5558   -4.2712    4.2462 H         1 <0>         0.0587
     42 H11         2.0289   -5.6625    3.2418 H         1 <0>         0.1047
     43 H12         1.8957    2.2004    3.3259 H         1 <0>         0.1241
     44 H13         2.9211    3.5348    5.1203 H         1 <0>         0.1242
     45 H14         4.1760   -0.0388    7.0832 H         1 <0>         0.1324
     46 H15         3.1452   -1.3893    5.3038 H         1 <0>         0.1253
     47 H16         5.0910    2.1142    7.7167 H         1 <0>         0.0881
     48 H17         4.5677    3.6053    6.8976 H         1 <0>         0.0822
     49 H18         2.3131    3.3439    7.9756 H         1 <0>         0.0546
     50 H19         4.6515    5.0841    7.9176 H         1 <0>         0.1354
     51 H20         4.0268    4.3823   12.7494 H         1 <0>         0.1338
     52 H21         3.5474    1.7138   11.6956 H         1 <0>         0.0880
     53 H22         2.2008    2.7898   12.1321 H         1 <0>         0.0799
     54 H23         1.5818    0.8963   10.5493 H         1 <0>         0.0834
     55 H24         1.1885    2.5280    9.9463 H         1 <0>         0.0377
     56 H25         2.4030    1.0038    8.3723 H         1 <0>         0.3497
     57 H26         4.8360    7.2388   12.3671 H         1 <0>         0.3877
     58 H27         5.2418    7.6865    9.2718 H         1 <0>         0.3869
@<TRIPOS>BOND
     1    1    2 1
     2    1   32 1
     3    1   33 1
     4    1   34 1
     5    2    3 1
     6    3    8 ar
     7    3    4 ar
     8    4    5 ar
     9    4   35 1
    10    5    6 ar
    11    5   13 1
    12    6    7 ar
    13    6   36 1
    14    7    8 ar
    15    7   11 1
    16    8    9 1
    17    9   10 1
    18   10   37 1
    19   10   38 1
    20   10   39 1
    21   11   12 1
    22   12   40 1
    23   12   41 1
    24   12   42 1
    25   13   18 ar
    26   13   14 ar
    27   14   15 ar
    28   14   43 1
    29   15   16 ar
    30   15   44 1
    31   16   17 ar
    32   16   19 1
    33   17   18 ar
    34   17   45 1
    35   18   46 1
    36   19   20 1
    37   19   47 1
    38   19   48 1
    39   20   29 1
    40   20   21 1
    41   20   49 1
    42   21   26 ar
    43   21   22 ar
    44   22   23 ar
    45   22   50 1
    46   23   24 ar
    47   23   31 1
    48   24   25 ar
    49   24   30 1
    50   25   26 ar
    51   25   51 1
    52   26   27 1
    53   27   28 1
    54   27   52 1
    55   27   53 1
    56   28   29 1
    57   28   54 1
    58   28   55 1
    59   29   56 1
    60   30   57 1
    61   31   58 1
@<TRIPOS>MOLECULE
CHEMBL421871
   59    62     0     0     0
SMALL
USER_CHARGES

@<TRIPOS>ATOM
      1 C1         -0.0173    1.4248    0.0099 C.3       1 <0>         0.0235
      2 O1          0.0021   -0.0041    0.0020 O.3       1 <0>        -0.2974
      3 C2         -1.2011   -0.6379    0.0101 C.ar      1 <0>         0.1531
      4 C3         -2.3720    0.1005    0.0195 C.ar      1 <0>        -0.2205
      5 C4         -3.6047   -0.5493    0.0278 C.ar      1 <0>         0.0068
      6 C5         -3.6567   -1.9418    0.0266 C.ar      1 <0>        -0.2195
      7 C6         -2.4842   -2.6776    0.0171 C.ar      1 <0>         0.1541
      8 C7         -1.2547   -2.0277    0.0031 C.ar      1 <0>         0.0422
      9 O2         -0.1031   -2.7521   -0.0122 O.3       1 <0>        -0.3120
     10 C8          0.4586   -3.1044    1.2537 C.3       1 <0>         0.0349
     11 O3         -2.5347   -4.0366    0.0164 O.3       1 <0>        -0.2974
     12 C9         -3.8311   -4.6377    0.0257 C.3       1 <0>         0.0227
     13 C10        -4.8604    0.2407    0.0384 C.ar      1 <0>        -0.0195
     14 C11        -4.8106    1.6333    0.0344 C.ar      1 <0>        -0.0989
     15 C12        -5.9819    2.3632    0.0443 C.ar      1 <0>        -0.1330
     16 C13        -7.2037    1.7149    0.0588 C.ar      1 <0>        -0.1283
     17 C14        -7.2591    0.3327    0.0633 C.ar      1 <0>        -0.0972
     18 C15        -6.0942   -0.4072    0.0467 C.ar      1 <0>        -0.0968
     19 C16        -8.4792    2.5173    0.0701 C.3       1 <0>        -0.0986
     20 C17        -8.9260    2.7852   -1.3685 C.3       1 <0>         0.0900
     21 C18       -10.2751    3.4549   -1.3530 C.ar      1 <0>        -0.1214
     22 C19       -11.2263    3.0046   -0.4487 C.ar      1 <0>        -0.1063
     23 C20       -12.4790    3.5893   -0.4017 C.ar      1 <0>         0.0985
     24 C21       -12.7859    4.6349   -1.2678 C.ar      1 <0>         0.1137
     25 C22       -11.8341    5.0810   -2.1674 C.ar      1 <0>        -0.1185
     26 C23       -10.5794    4.4921   -2.2091 C.ar      1 <0>        -0.0800
     27 C24        -9.5700    5.0153   -3.1992 C.3       1 <0>        -0.1060
     28 C25        -8.4350    4.0041   -3.3651 C.3       1 <0>        -0.0039
     29 N1         -7.9348    3.6372   -2.0316 N.4       1 <0>        -0.5046
     30 O4        -14.0154    5.2149   -1.2302 O.3       1 <0>        -0.4814
     31 O5        -13.4069    3.1448    0.4876 O.3       1 <0>        -0.4805
     32 H1          1.0053    1.8021    0.0021 H         1 <0>         0.1079
     33 H2         -0.5445    1.7859   -0.8732 H         1 <0>         0.0571
     34 H3         -0.5275    1.7763    0.9067 H         1 <0>         0.0572
     35 H4         -2.3302    1.1797    0.0208 H         1 <0>         0.1380
     36 H5         -4.6114   -2.4467    0.0334 H         1 <0>         0.1390
     37 H6         -0.2576   -3.7048    1.8146 H         1 <0>         0.0465
     38 H7          1.3718   -3.6790    1.0987 H         1 <0>         0.0978
     39 H8          0.6902   -2.1981    1.8133 H         1 <0>         0.0462
     40 H9         -3.7284   -5.7229    0.0240 H         1 <0>         0.1084
     41 H10        -4.3701   -4.3251    0.9200 H         1 <0>         0.0578
     42 H11        -4.3835   -4.3237   -0.8599 H         1 <0>         0.0583
     43 H12        -3.8572    2.1406    0.0238 H         1 <0>         0.1336
     44 H13        -5.9445    3.4425    0.0412 H         1 <0>         0.1249
     45 H14        -8.2158   -0.1683    0.0750 H         1 <0>         0.1334
     46 H15        -6.1386   -1.4863    0.0451 H         1 <0>         0.1343
     47 H16        -9.2553    1.9588    0.5935 H         1 <0>         0.1228
     48 H17        -8.3075    3.4654    0.5797 H         1 <0>         0.1015
     49 H18        -9.0015    1.8385   -1.9035 H         1 <0>         0.1499
     50 H19       -10.9872    2.1930    0.2226 H         1 <0>         0.1468
     51 H20       -12.0697    5.8916   -2.8410 H         1 <0>         0.1469
     52 H21       -10.0559    5.1757   -4.1617 H         1 <0>         0.1267
     53 H22        -9.1637    5.9600   -2.8377 H         1 <0>         0.1072
     54 H23        -8.8084    3.1149   -3.8729 H         1 <0>         0.1361
     55 H24        -7.6294    4.4505   -3.9481 H         1 <0>         0.1432
     56 H25        -7.7874    4.4722   -1.4847 H         1 <0>         0.4275
     57 H26       -14.0787    5.9636   -0.6215 H         1 <0>         0.4007
     58 H27       -13.3816    3.5974    1.3418 H         1 <0>         0.3989
     59 H28        -7.0649    3.1344   -2.1238 H         1 <0>         0.4336
@<TRIPOS>BOND
     1    1    2 1
     2    1   32 1
     3    1   33 1
     4    1   34 1
     5    2    3 1
     6    3    8 ar
     7    3    4 ar
     8    4    5 ar
     9    4   35 1
    10    5    6 ar
    11    5   13 1
    12    6    7 ar
    13    6   36 1
    14    7    8 ar
    15    7   11 1
    16    8    9 1
    17    9   10 1
    18   10   37 1
    19   10   38 1
    20   10   39 1
    21   11   12 1
    22   12   40 1
    23   12   41 1
    24   12   42 1
    25   13   18 ar
    26   13   14 ar
    27   14   15 ar
    28   14   43 1
    29   15   16 ar
    30   15   44 1
    31   16   17 ar
    32   16   19 1
    33   17   18 ar
    34   17   45 1
    35   18   46 1
    36   19   20 1
    37   19   47 1
    38   19   48 1
    39   20   29 1
    40   20   21 1
    41   20   49 1
    42   21   26 ar
    43   21   22 ar
    44   22   23 ar
    45   22   50 1
    46   23   24 ar
    47   23   31 1
    48   24   25 ar
    49   24   30 1
    50   25   26 ar
    51   25   51 1
    52   26   27 1
    53   27   28 1
    54   27   52 1
    55   27   53 1
    56   28   29 1
    57   28   54 1
    58   28   55 1
    59   29   56 1
    60   29   59 1
    61   30   57 1
    62   31   58 1
@<TRIPOS>MOLECULE
CHEMBL421871
   58    61     0     0     0
SMALL
USER_CHARGES

@<TRIPOS>ATOM
      1 C1         -0.0173    1.4248    0.0099 C.3       1 <0>         0.0234
      2 O1          0.0021   -0.0041    0.0020 O.3       1 <0>        -0.3015
      3 C2          0.6263   -0.6188    1.0422 C.ar      1 <0>         0.1532
      4 C3          1.2010    0.1378    2.0490 C.ar      1 <0>        -0.2263
      5 C4          1.8405   -0.4924    3.1146 C.ar      1 <0>         0.0339
      6 C5          1.9004   -1.8837    3.1652 C.ar      1 <0>        -0.2269
      7 C6          1.3247   -2.6377    2.1570 C.ar      1 <0>         0.1531
      8 C7          0.6819   -2.0074    1.0969 C.ar      1 <0>         0.0267
      9 O2          0.1113   -2.7499    0.1098 O.3       1 <0>        -0.3122
     10 C8          0.9355   -3.0855   -1.0083 C.3       1 <0>         0.0350
     11 O3          1.3834   -3.9955    2.2058 O.3       1 <0>        -0.3016
     12 C9          2.0544   -4.5761    3.3261 C.3       1 <0>         0.0234
     13 C10         2.4574    0.3171    4.1941 C.ar      1 <0>        -0.0549
     14 C11         2.3940    1.7084    4.1481 C.ar      1 <0>        -0.1018
     15 C12         2.9696    2.4565    5.1550 C.ar      1 <0>        -0.0926
     16 C13         3.6090    1.8277    6.2082 C.ar      1 <0>        -0.0622
     17 C14         3.6753    0.4470    6.2587 C.ar      1 <0>        -0.1165
     18 C15         3.0973   -0.3112    5.2607 C.ar      1 <0>        -0.1020
     19 C16         4.2360    2.6500    7.3044 C.3       1 <0>        -0.0772
     20 C17         3.2070    2.8960    8.4096 C.3       1 <0>         0.1347
     21 C18         3.8769    3.5893    9.5672 C.ar      1 <0>        -0.1063
     22 C19         5.1381    3.1573    9.9529 C.ar      1 <0>        -0.1234
     23 C20         5.7909    3.7601   11.0128 C.ar      1 <0>         0.0799
     24 C21         5.1773    4.8063   11.6960 C.ar      1 <0>         0.0836
     25 C22         3.9210    5.2349   11.3067 C.ar      1 <0>        -0.1294
     26 C23         3.2715    4.6282   10.2415 C.ar      1 <0>        -0.0682
     27 C24         1.9086    5.1386    9.8484 C.3       1 <0>        -0.1202
     28 C25         1.2012    4.1114    8.9643 C.3       1 <0>         0.0551
     29 N1          2.1155    3.7194    7.8800 N.3       1 <0>        -0.6660
     30 O4          5.8097    5.4038   12.7412 O.3       1 <0>        -0.4874
     31 O5          7.0266    3.3323   11.3863 O.3       1 <0>        -0.4871
     32 H1          1.0053    1.8021    0.0021 H         1 <0>         0.0572
     33 H2         -0.5445    1.7859   -0.8732 H         1 <0>         0.1041
     34 H3         -0.5275    1.7763    0.9067 H         1 <0>         0.0587
     35 H4          1.1541    1.2160    2.0083 H         1 <0>         0.1385
     36 H5          2.3960   -2.3735    3.9904 H         1 <0>         0.1381
     37 H6          0.3593   -3.6772   -1.7197 H         1 <0>         0.0928
     38 H7          1.2815   -2.1719   -1.4918 H         1 <0>         0.0440
     39 H8          1.7941   -3.6633   -0.6663 H         1 <0>         0.0441
     40 H9          3.0902   -4.2373    3.3447 H         1 <0>         0.0572
     41 H10         1.5558   -4.2712    4.2462 H         1 <0>         0.0586
     42 H11         2.0289   -5.6625    3.2418 H         1 <0>         0.1042
     43 H12         1.8957    2.2004    3.3259 H         1 <0>         0.1224
     44 H13         2.9211    3.5348    5.1203 H         1 <0>         0.1232
     45 H14         4.1760   -0.0388    7.0832 H         1 <0>         0.1226
     46 H15         3.1452   -1.3893    5.3038 H         1 <0>         0.1224
     47 H16         5.0910    2.1142    7.7167 H         1 <0>         0.0832
     48 H17         4.5677    3.6053    6.8976 H         1 <0>         0.0764
     49 H18         2.8057    1.9402    8.7467 H         1 <0>         0.0980
     50 H19         5.6127    2.3452    9.4222 H         1 <0>         0.1366
     51 H20         3.4429    6.0462   11.8354 H         1 <0>         0.1331
     52 H21         1.3151    5.3135   10.7458 H         1 <0>         0.0837
     53 H22         2.0171    6.0744    9.3001 H         1 <0>         0.0806
     54 H23         0.9403    3.2352    9.5578 H         1 <0>         0.0776
     55 H24         0.2988    4.5523    8.5409 H         1 <0>         0.0867
     56 H25         2.4749    4.5304    7.3991 H         1 <0>         0.3417
     57 H26         6.3625    6.1559   12.4886 H         1 <0>         0.3882
     58 H27         7.7525    3.7875   10.9381 H         1 <0>         0.3878
@<TRIPOS>BOND
     1    1    2 1
     2    1   32 1
     3    1   33 1
     4    1   34 1
     5    2    3 1
     6    3    8 ar
     7    3    4 ar
     8    4    5 ar
     9    4   35 1
    10    5    6 ar
    11    5   13 1
    12    6    7 ar
    13    6   36 1
    14    7    8 ar
    15    7   11 1
    16    8    9 1
    17    9   10 1
    18   10   37 1
    19   10   38 1
    20   10   39 1
    21   11   12 1
    22   12   40 1
    23   12   41 1
    24   12   42 1
    25   13   18 ar
    26   13   14 ar
    27   14   15 ar
    28   14   43 1
    29   15   16 ar
    30   15   44 1
    31   16   17 ar
    32   16   19 1
    33   17   18 ar
    34   17   45 1
    35   18   46 1
    36   19   20 1
    37   19   47 1
    38   19   48 1
    39   20   29 1
    40   20   21 1
    41   20   49 1
    42   21   26 ar
    43   21   22 ar
    44   22   23 ar
    45   22   50 1
    46   23   24 ar
    47   23   31 1
    48   24   25 ar
    49   24   30 1
    50   25   26 ar
    51   25   51 1
    52   26   27 1
    53   27   28 1
    54   27   52 1
    55   27   53 1
    56   28   29 1
    57   28   54 1
    58   28   55 1
    59   29   56 1
    60   30   57 1
    61   31   58 1
@<TRIPOS>MOLECULE
CHEMBL124863
   66    69     0     0     0
SMALL
USER_CHARGES

@<TRIPOS>ATOM
      1 C1          0.8123   -5.8532    7.5423 C.ar      1 <0>        -0.1512
      2 C2          2.1237   -5.6475    7.1554 C.ar      1 <0>        -0.0833
      3 C3          2.4019   -4.9429    6.0003 C.ar      1 <0>        -0.1941
      4 C4          1.3638   -4.4419    5.2277 C.ar      1 <0>         0.1200
      5 C5          0.0487   -4.6502    5.6180 C.ar      1 <0>        -0.1439
      6 C6         -0.2240   -5.3551    6.7743 C.ar      1 <0>        -0.0816
      7 O1          1.6348   -3.7480    4.0912 O.3       1 <0>        -0.2591
      8 C7          2.9369   -3.5086    3.7850 C.ar      1 <0>         0.1086
      9 C8          3.4917   -2.2609    4.0395 C.ar      1 <0>        -0.1350
     10 C9          4.8159   -2.0115    3.7306 C.ar      1 <0>        -0.0775
     11 C10         5.5955   -3.0008    3.1667 C.ar      1 <0>        -0.1728
     12 C11         5.0467   -4.2583    2.9071 C.ar      1 <0>         0.1320
     13 C12         3.7114   -4.5102    3.2248 C.ar      1 <0>        -0.1361
     14 N1          5.8174   -5.2424    2.3471 N.2       1 <0>        -0.5694
     15 C13         6.4117   -5.0349    1.1960 C.2       1 <0>         0.6494
     16 N2          6.1542   -3.8832    0.4857 N.pl3     1 <0>        -0.6184
     17 C14         6.7652   -3.6707   -0.7049 C.1       1 <0>         0.3872
     18 N3          7.2774   -3.4924   -1.7030 N.1       1 <0>        -0.3735
     19 N4          7.2907   -5.9663    0.6990 N.pl3     1 <0>        -0.6533
     20 C15         7.5028   -7.1647    1.3877 C.ar      1 <0>         0.1837
     21 C16         6.4490   -7.7845    2.0469 C.ar      1 <0>        -0.1020
     22 C17         6.6619   -8.9680    2.7261 C.ar      1 <0>        -0.0876
     23 C18         7.9225   -9.5360    2.7503 C.ar      1 <0>        -0.1242
     24 C19         8.9738   -8.9215    2.0950 C.ar      1 <0>        -0.0865
     25 C20         8.7665   -7.7409    1.4092 C.ar      1 <0>        -0.1399
     26 C21         8.1512  -10.8273    3.4929 C.3       1 <0>        -0.0978
     27 C22         7.9167  -12.0075    2.5479 C.3       1 <0>        -0.0077
     28 N5          8.1397  -13.2662    3.2718 N.4       1 <0>        -0.5056
     29 C23         7.9145  -14.3993    2.3644 C.3       1 <0>        -0.0425
     30 C24         8.1467  -15.7103    3.1183 C.3       1 <0>         0.1415
     31 H1          7.4546  -15.7740    3.9580 H         1 <0>         0.1339
     32 C25         7.9157  -16.8727    2.1875 C.ar      1 <0>        -0.2004
     33 C26         6.6799  -17.5000    2.1409 C.ar      1 <0>        -0.0548
     34 C27         6.5131  -18.5653    1.2695 C.ar      1 <0>        -0.1641
     35 C28         7.5767  -18.9640    0.4818 C.ar      1 <0>         0.1224
     36 N6          8.7383  -18.3441    0.5530 N.ar      1 <0>        -0.4750
     37 C29         8.9311  -17.3234    1.3657 C.ar      1 <0>         0.1172
     38 O2          9.4900  -15.7488    3.6043 O.3       1 <0>        -0.5460
     39 H2          0.5969   -6.4079    8.4436 H         1 <0>         0.1259
     40 H3          2.9313   -6.0376    7.7571 H         1 <0>         0.1250
     41 H4          3.4264   -4.7818    5.6989 H         1 <0>         0.1284
     42 H5         -0.7611   -4.2610    5.0187 H         1 <0>         0.1335
     43 H6         -1.2474   -5.5172    7.0787 H         1 <0>         0.1329
     44 H7          2.8863   -1.4826    4.4801 H         1 <0>         0.1360
     45 H8          5.2415   -1.0394    3.9309 H         1 <0>         0.1368
     46 H9          6.6295   -2.8024    2.9259 H         1 <0>         0.1280
     47 H10         3.2824   -5.4821    3.0305 H         1 <0>         0.1340
     48 H11         5.5355   -3.2244    0.8379 H         1 <0>         0.4480
     49 H12         7.7643   -5.7926   -0.1295 H         1 <0>         0.4221
     50 H13         5.4644   -7.3413    2.0287 H         1 <0>         0.1470
     51 H14         5.8431   -9.4503    3.2392 H         1 <0>         0.1278
     52 H15         9.9571   -9.3677    2.1158 H         1 <0>         0.1289
     53 H16         9.5869   -7.2639    0.8935 H         1 <0>         0.1315
     54 H17         9.1758  -10.8567    3.8636 H         1 <0>         0.0960
     55 H18         7.4591  -10.8910    4.3325 H         1 <0>         0.0962
     56 H19         6.8921  -11.9781    2.1772 H         1 <0>         0.1337
     57 H20         8.6089  -11.9437    1.7083 H         1 <0>         0.1333
     58 H21         9.0881  -13.2934    3.6149 H         1 <0>         0.4325
     59 H22         6.8899  -14.3699    1.9937 H         1 <0>         0.1446
     60 H23         8.6066  -14.3356    1.5248 H         1 <0>         0.1375
     61 H24         5.8667  -17.1668    2.7686 H         1 <0>         0.1412
     62 H25         5.5643  -19.0774    1.2072 H         1 <0>         0.1472
     63 H26         7.4550  -19.7930   -0.1995 H         1 <0>         0.1671
     64 H27         9.8950  -16.8372    1.3926 H         1 <0>         0.1530
     65 H28        10.1611  -15.6962    2.9101 H         1 <0>         0.3899
     66 H29         7.4990  -13.3252    4.0490 H         1 <0>         0.4297
@<TRIPOS>BOND
     1    1    6 ar
     2    1    2 ar
     3    1   39 1
     4    2    3 ar
     5    2   40 1
     6    3    4 ar
     7    3   41 1
     8    4    5 ar
     9    4    7 1
    10    5    6 ar
    11    5   42 1
    12    6   43 1
    13    7    8 1
    14    8   13 ar
    15    8    9 ar
    16    9   10 ar
    17    9   44 1
    18   10   11 ar
    19   10   45 1
    20   11   12 ar
    21   11   46 1
    22   12   13 ar
    23   12   14 1
    24   13   47 1
    25   14   15 2
    26   15   16 1
    27   15   19 1
    28   16   17 1
    29   16   48 1
    30   17   18 3
    31   19   20 1
    32   19   49 1
    33   20   25 ar
    34   20   21 ar
    35   21   22 ar
    36   21   50 1
    37   22   23 ar
    38   22   51 1
    39   23   24 ar
    40   23   26 1
    41   24   25 ar
    42   24   52 1
    43   25   53 1
    44   26   27 1
    45   26   54 1
    46   26   55 1
    47   27   28 1
    48   27   56 1
    49   27   57 1
    50   28   29 1
    51   28   58 1
    52   28   66 1
    53   29   30 1
    54   29   59 1
    55   29   60 1
    56   30   31 1
    57   30   32 1
    58   30   38 1
    59   32   37 ar
    60   32   33 ar
    61   33   34 ar
    62   33   61 1
    63   34   35 ar
    64   34   62 1
    65   35   36 ar
    66   35   63 1
    67   36   37 ar
    68   37   64 1
    69   38   65 1
@<TRIPOS>MOLECULE
CHEMBL563872
   57    59     0     0     0
SMALL
USER_CHARGES

@<TRIPOS>ATOM
      1 C1          0.2228    1.4890    0.2025 C.ar      1 <0>        -0.1472
      2 C2          1.4165    2.1819    0.1220 C.ar      1 <0>        -0.0763
      3 C3          2.6125    1.4940    0.0526 C.ar      1 <0>        -0.1444
      4 C4          2.6151    0.1067    0.0641 C.ar      1 <0>         0.1163
      5 C5          1.4160   -0.5862    0.1454 C.ar      1 <0>        -0.2095
      6 C6          0.2227    0.1064    0.2141 C.ar      1 <0>        -0.0801
      7 O1          3.7903   -0.5723   -0.0046 O.3       1 <0>        -0.3027
      8 C7          3.7170   -1.9993    0.0121 C.3       1 <0>         0.0298
      9 C8          5.1285   -2.5835   -0.0723 C.3       1 <0>         0.0854
     10 H1          5.6349   -2.1846   -0.9513 H         1 <0>         0.1362
     11 C9          5.0442   -4.1074   -0.1801 C.3       1 <0>        -0.0416
     12 N1          6.3994   -4.6683   -0.2612 N.4       1 <0>        -0.5039
     13 C10         6.3184   -6.1314   -0.3647 C.3       1 <0>        -0.0081
     14 C11         7.7300   -6.7157   -0.4491 C.3       1 <0>        -0.0999
     15 C12         7.6469   -8.2166   -0.5553 C.ar      1 <0>        -0.1193
     16 C13         7.6388   -8.9899    0.5911 C.ar      1 <0>        -0.0886
     17 C14         7.5628  -10.3657    0.4974 C.ar      1 <0>        -0.1254
     18 C15         7.4943  -10.9725   -0.7503 C.ar      1 <0>         0.1655
     19 C16         7.5026  -10.1927   -1.8998 C.ar      1 <0>        -0.1489
     20 C17         7.5732   -8.8172   -1.7988 C.ar      1 <0>        -0.0829
     21 N2          7.4177  -12.3637   -0.8487 N.pl3     1 <0>        -1.0599
     22 S1          6.3142  -13.0623   -1.8667 S.o2      1 <0>         2.6875
     23 O2          6.4986  -12.4600   -3.1405 O.2       1 <0>        -0.9447
     24 O3          6.4089  -14.4659   -1.6668 O.2       1 <0>        -0.9391
     25 C18         4.7135  -12.5811   -1.3092 C.ar      1 <0>        -0.6765
     26 C19         4.0898  -13.2926   -0.3014 C.ar      1 <0>        -0.0160
     27 C20         2.8340  -12.9151    0.1360 C.ar      1 <0>        -0.1366
     28 C21         2.2021  -11.8257   -0.4340 C.ar      1 <0>        -0.0585
     29 C22         2.8262  -11.1136   -1.4411 C.ar      1 <0>        -0.1419
     30 C23         4.0838  -11.4886   -1.8756 C.ar      1 <0>        -0.0199
     31 O4          5.8619   -2.2289    1.1018 O.3       1 <0>        -0.5432
     32 H2         -0.7109    2.0286    0.2609 H         1 <0>         0.1297
     33 H3          1.4140    3.2619    0.1131 H         1 <0>         0.1354
     34 H4          3.5447    2.0357   -0.0110 H         1 <0>         0.1333
     35 H5          1.4154   -1.6662    0.1542 H         1 <0>         0.1232
     36 H6         -0.7111   -0.4326    0.2774 H         1 <0>         0.1285
     37 H7          3.2425   -2.3279    0.9367 H         1 <0>         0.0760
     38 H8          3.1300   -2.3429   -0.8396 H         1 <0>         0.0812
     39 H9          4.5378   -4.5063    0.6988 H         1 <0>         0.1395
     40 H10         4.4848   -4.3779   -1.0757 H         1 <0>         0.1472
     41 H11         6.8682   -4.2990   -1.0748 H         1 <0>         0.4317
     42 H12         5.8121   -6.5304    0.5142 H         1 <0>         0.1339
     43 H13         5.7591   -6.4019   -1.2603 H         1 <0>         0.1352
     44 H14         8.2363   -6.3167   -1.3281 H         1 <0>         0.0987
     45 H15         8.2893   -6.4452    0.4464 H         1 <0>         0.0978
     46 H16         7.6924   -8.5174    1.5608 H         1 <0>         0.1303
     47 H17         7.5569  -10.9690    1.3931 H         1 <0>         0.1357
     48 H18         7.4499  -10.6614   -2.8714 H         1 <0>         0.1624
     49 H19         7.5752   -8.2101   -2.6920 H         1 <0>         0.1333
     50 H20         8.0110  -12.9206   -0.3207 H         1 <0>         0.4325
     51 H21         4.5834  -14.1437    0.1439 H         1 <0>         0.1413
     52 H22         2.3464  -13.4715    0.9228 H         1 <0>         0.1375
     53 H23         1.2206  -11.5312   -0.0927 H         1 <0>         0.1339
     54 H24         2.3323  -10.2627   -1.8867 H         1 <0>         0.1328
     55 H25         4.5729  -10.9299   -2.6598 H         1 <0>         0.1397
     56 H26         5.4681   -2.5518    1.9239 H         1 <0>         0.3900
     57 H27         6.9172   -4.4179    0.5678 H         1 <0>         0.4337
@<TRIPOS>BOND
     1    1    6 ar
     2    1    2 ar
     3    1   32 1
     4    2    3 ar
     5    2   33 1
     6    3    4 ar
     7    3   34 1
     8    4    5 ar
     9    4    7 1
    10    5    6 ar
    11    5   35 1
    12    6   36 1
    13    7    8 1
    14    8    9 1
    15    8   37 1
    16    8   38 1
    17    9   10 1
    18    9   11 1
    19    9   31 1
    20   11   12 1
    21   11   39 1
    22   11   40 1
    23   12   13 1
    24   12   41 1
    25   12   57 1
    26   13   14 1
    27   13   42 1
    28   13   43 1
    29   14   15 1
    30   14   44 1
    31   14   45 1
    32   15   20 ar
    33   15   16 ar
    34   16   17 ar
    35   16   46 1
    36   17   18 ar
    37   17   47 1
    38   18   19 ar
    39   18   21 1
    40   19   20 ar
    41   19   48 1
    42   20   49 1
    43   21   22 1
    44   21   50 1
    45   22   23 2
    46   22   24 2
    47   22   25 1
    48   25   30 ar
    49   25   26 ar
    50   26   27 ar
    51   26   51 1
    52   27   28 ar
    53   27   52 1
    54   28   29 ar
    55   28   53 1
    56   29   30 ar
    57   29   54 1
    58   30   55 1
    59   31   56 1
@<TRIPOS>MOLECULE
CHEMBL563872
   56    58     0     0     0
SMALL
USER_CHARGES

@<TRIPOS>ATOM
      1 C1         -0.0167    1.3784    0.0096 C.ar      1 <0>        -0.1504
      2 C2          1.1698    2.0883    0.0021 C.ar      1 <0>        -0.0780
      3 C3          2.3773    1.4175   -0.0134 C.ar      1 <0>        -0.1462
      4 C4          2.3989    0.0304   -0.0210 C.ar      1 <0>         0.1196
      5 C5          1.2070   -0.6796   -0.0130 C.ar      1 <0>        -0.2092
      6 C6          0.0021   -0.0041    0.0020 C.ar      1 <0>        -0.0798
      7 O1          3.5855   -0.6319   -0.0368 O.3       1 <0>        -0.3030
      8 C7          3.5315   -2.0598   -0.0438 C.3       1 <0>         0.0293
      9 C8          4.9536   -2.6239   -0.0615 C.3       1 <0>         0.0863
     10 H1          5.4999   -2.2055   -0.9067 H         1 <0>         0.1344
     11 C9          4.8964   -4.1471   -0.1947 C.3       1 <0>        -0.0417
     12 N1          6.2619   -4.6887   -0.2117 N.4       1 <0>        -0.5037
     13 C10         6.2070   -6.1510   -0.3396 C.3       1 <0>        -0.0111
     14 C11         7.6291   -6.7151   -0.3573 C.3       1 <0>        -0.0711
     15 C12         7.5729   -8.2154   -0.4885 C.ar      1 <0>        -0.2370
     16 C13         7.5152   -9.0053    0.6450 C.ar      1 <0>        -0.0636
     17 C14         7.4635  -10.3805    0.5283 C.ar      1 <0>        -0.1814
     18 C15         7.4696  -10.9699   -0.7295 C.ar      1 <0>         0.2965
     19 C16         7.5276  -10.1734   -1.8661 C.ar      1 <0>        -0.2650
     20 C17         7.5733   -8.7987   -1.7423 C.ar      1 <0>        -0.0474
     21 N2          7.4179  -12.3604   -0.8511 N.2       1 <0>        -1.0827
     22 S1          7.4252  -13.0611   -2.3515 S.o2      1 <0>         2.6094
     23 O2          6.2078  -12.6856   -2.9811 O.2       1 <0>        -1.0279
     24 O3          8.6960  -12.7831   -2.9234 O.2       1 <0>        -1.0255
     25 C18         7.3513  -14.8053   -2.1123 C.ar      1 <0>        -0.6200
     26 C19         8.5181  -15.5355   -1.9851 C.ar      1 <0>        -0.0248
     27 C20         8.4601  -16.9038   -1.7974 C.ar      1 <0>        -0.1456
     28 C21         7.2353  -17.5418   -1.7365 C.ar      1 <0>        -0.0798
     29 C22         6.0685  -16.8115   -1.8628 C.ar      1 <0>        -0.1462
     30 C23         6.1264  -15.4426   -2.0462 C.ar      1 <0>        -0.0255
     31 O4          5.6188   -2.2768    1.1546 O.3       1 <0>        -0.5447
     32 H2         -0.9596    1.9047    0.0260 H         1 <0>         0.1280
     33 H3          1.1525    3.1682    0.0080 H         1 <0>         0.1335
     34 H4          3.3038    1.9724   -0.0200 H         1 <0>         0.1326
     35 H5          1.2211   -1.7595   -0.0193 H         1 <0>         0.1251
     36 H6         -0.9260   -0.5563    0.0082 H         1 <0>         0.1280
     37 H7          3.0134   -2.4083    0.8497 H         1 <0>         0.0765
     38 H8          2.9951   -2.3988   -0.9302 H         1 <0>         0.0818
     39 H9          4.3501   -4.5655    0.6505 H         1 <0>         0.1381
     40 H10         4.3890   -4.4118   -1.1224 H         1 <0>         0.1453
     41 H11         6.7676   -4.3013   -0.9941 H         1 <0>         0.4277
     42 H12         5.6606   -6.5695    0.5056 H         1 <0>         0.1311
     43 H13         5.6996   -6.4158   -1.2672 H         1 <0>         0.1312
     44 H14         8.1755   -6.2967   -1.2025 H         1 <0>         0.0799
     45 H15         8.1366   -6.4503    0.5704 H         1 <0>         0.0808
     46 H16         7.5109   -8.5464    1.6227 H         1 <0>         0.1044
     47 H17         7.4189  -10.9969    1.4140 H         1 <0>         0.1167
     48 H18         7.5328  -10.6285   -2.8455 H         1 <0>         0.1016
     49 H19         7.6140   -8.1786   -2.6257 H         1 <0>         0.1018
     50 H20         9.4750  -15.0370   -2.0327 H         1 <0>         0.1359
     51 H21         9.3718  -17.4745   -1.6988 H         1 <0>         0.1280
     52 H22         7.1901  -18.6110   -1.5905 H         1 <0>         0.1257
     53 H23         5.1116  -17.3100   -1.8155 H         1 <0>         0.1276
     54 H24         5.2147  -14.8714   -2.1411 H         1 <0>         0.1352
     55 H25         5.1868   -2.6168    1.9502 H         1 <0>         0.3894
     56 H26         6.7316   -4.4435    0.6470 H         1 <0>         0.4301
@<TRIPOS>BOND
     1    1    6 ar
     2    1    2 ar
     3    1   32 1
     4    2    3 ar
     5    2   33 1
     6    3    4 ar
     7    3   34 1
     8    4    5 ar
     9    4    7 1
    10    5    6 ar
    11    5   35 1
    12    6   36 1
    13    7    8 1
    14    8    9 1
    15    8   37 1
    16    8   38 1
    17    9   10 1
    18    9   11 1
    19    9   31 1
    20   11   12 1
    21   11   39 1
    22   11   40 1
    23   12   13 1
    24   12   41 1
    25   12   56 1
    26   13   14 1
    27   13   42 1
    28   13   43 1
    29   14   15 1
    30   14   44 1
    31   14   45 1
    32   15   20 ar
    33   15   16 ar
    34   16   17 ar
    35   16   46 1
    36   17   18 ar
    37   17   47 1
    38   18   19 ar
    39   18   21 1
    40   19   20 ar
    41   19   48 1
    42   20   49 1
    43   21   22 1
    44   22   23 2
    45   22   24 2
    46   22   25 1
    47   25   30 ar
    48   25   26 ar
    49   26   27 ar
    50   26   50 1
    51   27   28 ar
    52   27   51 1
    53   28   29 ar
    54   28   52 1
    55   29   30 ar
    56   29   53 1
    57   30   54 1
    58   31   55 1
@<TRIPOS>MOLECULE
CHEMBL236039
   71    74     0     0     0
SMALL
USER_CHARGES

@<TRIPOS>ATOM
      1 C1         -0.0187    1.5258    0.0104 C.3       1 <0>        -0.1839
      2 C2          0.0021   -0.0041    0.0020 C.3       1 <0>         0.0288
      3 H1          0.5123   -0.3556   -0.8948 H         1 <0>         0.1404
      4 C3         -1.4333   -0.5336    0.0129 C.3       1 <0>        -0.0939
      5 C4         -1.4159   -2.0348   -0.1192 C.ar      1 <0>        -0.1482
      6 C5         -1.4502   -2.6151   -1.3811 C.ar      1 <0>        -0.0854
      7 C6         -1.4355   -3.9842   -1.5247 C.ar      1 <0>        -0.1099
      8 C7         -1.3855   -4.7979   -0.3960 C.ar      1 <0>         0.1188
      9 C8         -1.3504   -4.2071    0.8821 C.ar      1 <0>        -0.1100
     10 C9         -1.3611   -2.8112    1.0014 C.ar      1 <0>        -0.0783
     11 C10        -1.3033   -5.2632    1.8240 C.2       1 <0>        -0.1125
     12 C11        -1.3101   -6.4336    1.1340 C.2       1 <0>         0.0369
     13 N1         -1.3601   -6.1611   -0.2194 N.pl3     1 <0>        -0.5728
     14 H2         -1.3753   -6.8228   -0.9285 H         1 <0>         0.4224
     15 C12        -1.2699   -7.7763    1.7324 C.2       1 <0>         0.5782
     16 O1         -1.2263   -7.9023    2.9415 O.2       1 <0>        -0.5117
     17 N2         -1.2814   -8.8673    0.9411 N.am      1 <0>        -0.7154
     18 C13        -1.2413  -10.2049    1.5372 C.3       1 <0>         0.1731
     19 C14        -1.2640  -11.2427    0.4446 C.ar      1 <0>        -0.1523
     20 C15        -2.4456  -11.8824    0.1231 C.ar      1 <0>        -0.0603
     21 C16        -2.4670  -12.8348   -0.8787 C.ar      1 <0>        -0.1565
     22 C17        -1.3064  -13.1494   -1.5617 C.ar      1 <0>        -0.0659
     23 C18        -0.1227  -12.5123   -1.2444 C.ar      1 <0>        -0.2103
     24 C19        -0.0997  -11.5522   -0.2429 C.ar      1 <0>         0.1434
     25 O2          1.0626  -10.9200    0.0674 O.3       1 <0>        -0.3133
     26 C20         2.2220  -11.2893   -0.6819 C.3       1 <0>         0.0250
     27 N3          0.7126   -0.4907    1.1921 N.4       1 <0>        -0.5054
     28 C21         2.1220   -0.0825    1.1220 C.3       1 <0>        -0.0459
     29 C22         2.8620   -0.5894    2.3615 C.3       1 <0>         0.1376
     30 H3          2.8002   -1.6769    2.4022 H         1 <0>         0.1318
     31 C23         4.3078   -0.1706    2.2896 C.ar      1 <0>        -0.1523
     32 C24         4.6878    1.0793    2.7430 C.ar      1 <0>        -0.0895
     33 C25         6.0123    1.4657    2.6777 C.ar      1 <0>        -0.1373
     34 C26         6.9620    0.5982    2.1572 C.ar      1 <0>         0.1323
     35 C27         6.5783   -0.6552    1.7036 C.ar      1 <0>        -0.1104
     36 C28         5.2530   -1.0389    1.7758 C.ar      1 <0>        -0.0622
     37 C29         7.6071   -1.5999    1.1376 C.3       1 <0>         0.1178
     38 O3          6.9703   -2.8165    0.7422 O.3       1 <0>        -0.5749
     39 O4          8.2657    0.9761    2.0915 O.3       1 <0>        -0.4945
     40 O5          2.2630   -0.0341    3.5341 O.3       1 <0>        -0.5462
     41 H4          1.0039    1.9031    0.0027 H         1 <0>         0.0812
     42 H5         -0.5459    1.8868   -0.8726 H         1 <0>         0.1080
     43 H6         -0.5289    1.8773    0.9072 H         1 <0>         0.0839
     44 H7         -1.9156   -0.2570    0.9504 H         1 <0>         0.0975
     45 H8         -1.9862   -0.1019   -0.8214 H         1 <0>         0.1210
     46 H9         -1.4890   -1.9859   -2.2581 H         1 <0>         0.1342
     47 H10        -1.4631   -4.4258   -2.5099 H         1 <0>         0.1314
     48 H11        -1.3300   -2.3510    1.9779 H         1 <0>         0.1255
     49 H12        -1.2683   -5.1574    2.8983 H         1 <0>         0.1619
     50 H13        -1.3162   -8.7668   -0.0230 H         1 <0>         0.3956
     51 H14        -0.3288  -10.3143    2.1233 H         1 <0>         0.0857
     52 H15        -2.1075  -10.3402    2.1848 H         1 <0>         0.0828
     53 H16        -3.3533  -11.6385    0.6552 H         1 <0>         0.1332
     54 H17        -3.3915  -13.3343   -1.1280 H         1 <0>         0.1298
     55 H18        -1.3256  -13.8940   -2.3437 H         1 <0>         0.1297
     56 H19         0.7834  -12.7583   -1.7782 H         1 <0>         0.1318
     57 H20         2.0513  -11.0862   -1.7391 H         1 <0>         0.0564
     58 H21         3.0784  -10.7113   -0.3345 H         1 <0>         0.1019
     59 H22         2.4207  -12.3520   -0.5436 H         1 <0>         0.0596
     60 H23         0.2896   -0.0986    2.0201 H         1 <0>         0.4279
     61 H24         2.5788   -0.5061    0.2276 H         1 <0>         0.1438
     62 H25         2.1837    1.0050    1.0814 H         1 <0>         0.1389
     63 H26         3.9483    1.7541    3.1480 H         1 <0>         0.1279
     64 H27         6.3085    2.4422    3.0312 H         1 <0>         0.1399
     65 H28         4.9544   -2.0163    1.4265 H         1 <0>         0.1415
     66 H29         8.0839   -1.1412    0.2713 H         1 <0>         0.0700
     67 H30         8.3602   -1.8138    1.8960 H         1 <0>         0.0648
     68 H31         7.5738   -3.4728    0.3679 H         1 <0>         0.3922
     69 H32         8.7804    0.7520    2.8789 H         1 <0>         0.4006
     70 H33         2.2821    0.9322    3.5656 H         1 <0>         0.3867
     71 H34         0.6554   -1.4974    1.2298 H         1 <0>         0.4272
@<TRIPOS>BOND
     1    1    2 1
     2    1   41 1
     3    1   42 1
     4    1   43 1
     5    2    3 1
     6    2    4 1
     7    2   27 1
     8    4    5 1
     9    4   44 1
    10    4   45 1
    11    5   10 ar
    12    5    6 ar
    13    6    7 ar
    14    6   46 1
    15    7    8 ar
    16    7   47 1
    17    8   13 1
    18    8    9 ar
    19    9   10 ar
    20    9   11 1
    21   10   48 1
    22   11   12 2
    23   11   49 1
    24   12   13 1
    25   12   15 1
    26   13   14 1
    27   15   16 2
    28   15   17 am
    29   17   18 1
    30   17   50 1
    31   18   19 1
    32   18   51 1
    33   18   52 1
    34   19   24 ar
    35   19   20 ar
    36   20   21 ar
    37   20   53 1
    38   21   22 ar
    39   21   54 1
    40   22   23 ar
    41   22   55 1
    42   23   24 ar
    43   23   56 1
    44   24   25 1
    45   25   26 1
    46   26   57 1
    47   26   58 1
    48   26   59 1
    49   27   28 1
    50   27   60 1
    51   27   71 1
    52   28   29 1
    53   28   61 1
    54   28   62 1
    55   29   30 1
    56   29   31 1
    57   29   40 1
    58   31   36 ar
    59   31   32 ar
    60   32   33 ar
    61   32   63 1
    62   33   34 ar
    63   33   64 1
    64   34   35 ar
    65   34   39 1
    66   35   36 ar
    67   35   37 1
    68   36   65 1
    69   37   38 1
    70   37   66 1
    71   37   67 1
    72   38   68 1
    73   39   69 1
    74   40   70 1
@<TRIPOS>MOLECULE
CHEMBL1204003
   57    59     0     0     0
SMALL
USER_CHARGES

@<TRIPOS>ATOM
      1 C1          4.5839   -0.9403   -4.0732 C.ar      1 <0>        -0.1245
      2 C2          3.4212   -0.2991   -3.6869 C.ar      1 <0>        -0.1039
      3 C3          3.0973   -0.2003   -2.3481 C.ar      1 <0>        -0.1295
      4 C4          3.9410   -0.7461   -1.3889 C.ar      1 <0>         0.1373
      5 C5          5.1082   -1.3895   -1.7804 C.ar      1 <0>        -0.1517
      6 C6          5.4261   -1.4846   -3.1209 C.ar      1 <0>        -0.0953
      7 N1          3.6167   -0.6477   -0.0339 N.pl3     1 <0>        -1.0549
      8 S1          3.7405   -1.9770    0.9458 S.o2      1 <0>         2.6857
      9 O1          5.0498   -2.4973    0.7608 O.2       1 <0>        -0.9392
     10 O2          3.2482   -1.5889    2.2211 O.2       1 <0>        -0.9416
     11 C7          2.6241   -3.1893    0.3225 C.ar      1 <0>        -0.6618
     12 C8          1.2930   -3.1593    0.6944 C.ar      1 <0>        -0.0111
     13 C9          0.4172   -4.1104    0.2054 C.ar      1 <0>        -0.1301
     14 C10         0.8723   -5.0913   -0.6558 C.ar      1 <0>        -0.0503
     15 C11         2.2031   -5.1208   -1.0283 C.ar      1 <0>        -0.1289
     16 C12         3.0781   -4.1672   -0.5427 C.ar      1 <0>        -0.0081
     17 C13        -0.0824   -6.1288   -1.1880 C.3       1 <0>        -0.1106
     18 C14        -0.7024   -5.6289   -2.4944 C.3       1 <0>        -0.0063
     19 N2         -1.6329   -6.6402   -3.0133 N.4       1 <0>        -0.5041
     20 C15        -2.2282   -6.1602   -4.2676 C.3       1 <0>        -0.0416
     21 C16        -3.1974   -7.2136   -4.8080 C.3       1 <0>         0.0858
     22 H1         -2.6784   -8.1666   -4.9100 H         1 <0>         0.1354
     23 C17        -3.7225   -6.7699   -6.1749 C.3       1 <0>         0.0298
     24 O3         -4.5355   -7.8048   -6.7316 O.3       1 <0>        -0.3028
     25 C18        -5.0837   -7.5692   -7.9526 C.ar      1 <0>         0.1160
     26 C19        -4.8394   -6.3690   -8.6041 C.ar      1 <0>        -0.2095
     27 C20        -5.3974   -6.1321   -9.8454 C.ar      1 <0>        -0.0800
     28 C21        -6.1993   -7.0898  -10.4383 C.ar      1 <0>        -0.1470
     29 C22        -6.4447   -8.2866   -9.7909 C.ar      1 <0>        -0.0763
     30 C23        -5.8840   -8.5308   -8.5522 C.ar      1 <0>        -0.1443
     31 O4         -4.2927   -7.3622   -3.9023 O.3       1 <0>        -0.5426
     32 H2          4.8326   -1.0200   -5.1211 H         1 <0>         0.1275
     33 H3          2.7659    0.1253   -4.4331 H         1 <0>         0.1279
     34 H4          2.1892    0.3009   -2.0471 H         1 <0>         0.1277
     35 H5          5.7665   -1.8146   -1.0372 H         1 <0>         0.1562
     36 H6          6.3334   -1.9847   -3.4260 H         1 <0>         0.1327
     37 H7          3.3189    0.1994    0.3332 H         1 <0>         0.4304
     38 H8          0.9375   -2.3929    1.3672 H         1 <0>         0.1463
     39 H9         -0.6226   -4.0874    0.4965 H         1 <0>         0.1370
     40 H10         2.5588   -5.8874   -1.7008 H         1 <0>         0.1372
     41 H11         4.1171   -4.1880   -0.8367 H         1 <0>         0.1489
     42 H12         0.4570   -7.0576   -1.3739 H         1 <0>         0.1038
     43 H13        -0.8706   -6.3066   -0.4565 H         1 <0>         0.1037
     44 H14        -1.2418   -4.7001   -2.3086 H         1 <0>         0.1360
     45 H15         0.0859   -5.4511   -3.2260 H         1 <0>         0.1368
     46 H16        -1.1336   -7.5000   -3.1853 H         1 <0>         0.4319
     47 H17        -2.7676   -5.2315   -4.0817 H         1 <0>         0.1409
     48 H18        -1.4399   -5.9825   -4.9991 H         1 <0>         0.1473
     49 H19        -4.3168   -5.8636   -6.0591 H         1 <0>         0.0766
     50 H20        -2.8820   -6.5708   -6.8398 H         1 <0>         0.0811
     51 H21        -4.2137   -5.6203   -8.1410 H         1 <0>         0.1231
     52 H22        -5.2075   -5.1979  -10.3529 H         1 <0>         0.1287
     53 H23        -6.6349   -6.9025  -11.4087 H         1 <0>         0.1299
     54 H24        -7.0717   -9.0329  -10.2560 H         1 <0>         0.1355
     55 H25        -6.0724   -9.4676   -8.0489 H         1 <0>         0.1333
     56 H26        -4.8010   -6.5514   -3.7633 H         1 <0>         0.3907
     57 H27        -2.3626   -6.8048   -2.3361 H         1 <0>         0.4349
@<TRIPOS>BOND
     1    1    6 ar
     2    1    2 ar
     3    1   32 1
     4    2    3 ar
     5    2   33 1
     6    3    4 ar
     7    3   34 1
     8    4    5 ar
     9    4    7 1
    10    5    6 ar
    11    5   35 1
    12    6   36 1
    13    7    8 1
    14    7   37 1
    15    8    9 2
    16    8   10 2
    17    8   11 1
    18   11   16 ar
    19   11   12 ar
    20   12   13 ar
    21   12   38 1
    22   13   14 ar
    23   13   39 1
    24   14   15 ar
    25   14   17 1
    26   15   16 ar
    27   15   40 1
    28   16   41 1
    29   17   18 1
    30   17   42 1
    31   17   43 1
    32   18   19 1
    33   18   44 1
    34   18   45 1
    35   19   20 1
    36   19   46 1
    37   19   57 1
    38   20   21 1
    39   20   47 1
    40   20   48 1
    41   21   22 1
    42   21   23 1
    43   21   31 1
    44   23   24 1
    45   23   49 1
    46   23   50 1
    47   24   25 1
    48   25   30 ar
    49   25   26 ar
    50   26   27 ar
    51   26   51 1
    52   27   28 ar
    53   27   52 1
    54   28   29 ar
    55   28   53 1
    56   29   30 ar
    57   29   54 1
    58   30   55 1
    59   31   56 1
@<TRIPOS>MOLECULE
CHEMBL1204004
   54    56     0     0     0
SMALL
USER_CHARGES

@<TRIPOS>ATOM
      1 C1          0.3953    1.3632    1.6642 C.ar      1 <0>        -0.1479
      2 C2          0.7681    0.1231    2.1494 C.ar      1 <0>        -0.0853
      3 C3          1.8369   -0.5472    1.5877 C.ar      1 <0>        -0.1682
      4 C4          2.5379    0.0258    0.5340 C.ar      1 <0>         0.1716
      5 C5          2.1608    1.2719    0.0490 C.ar      1 <0>        -0.1643
      6 C6          1.0910    1.9366    0.6154 C.ar      1 <0>        -0.0823
      7 N1          3.6200   -0.6492   -0.0363 N.pl3     1 <0>        -0.6855
      8 C7          3.6964   -2.0419    0.0457 C.ar      1 <0>         0.2037
      9 C8          2.5350   -2.8043    0.0416 C.ar      1 <0>        -0.1609
     10 C9          2.6141   -4.1806    0.1228 C.ar      1 <0>        -0.0731
     11 C10         3.8476   -4.8000    0.2086 C.ar      1 <0>        -0.1489
     12 C11         5.0057   -4.0441    0.2130 C.ar      1 <0>        -0.0714
     13 C12         4.9341   -2.6678    0.1258 C.ar      1 <0>        -0.1650
     14 C13         3.9299   -6.3021    0.2981 C.3       1 <0>        -0.0942
     15 C14         4.0165   -6.8929   -1.1105 C.3       1 <0>        -0.0074
     16 N2          4.0967   -8.3571   -1.0233 N.4       1 <0>        -0.5039
     17 C15         4.1798   -8.9244   -2.3758 C.3       1 <0>        -0.0415
     18 C16         4.2634  -10.4494   -2.2849 C.3       1 <0>         0.0856
     19 H1          3.3744  -10.8328   -1.7841 H         1 <0>         0.1359
     20 C17         4.3499  -11.0403   -3.6936 C.3       1 <0>         0.0297
     21 O1          4.3107  -12.4666   -3.6151 O.3       1 <0>        -0.3028
     22 C18         4.3781  -13.1511   -4.7872 C.ar      1 <0>         0.1165
     23 C19         4.4858  -12.4642   -5.9877 C.ar      1 <0>        -0.2095
     24 C20         4.5547  -13.1623   -7.1778 C.ar      1 <0>        -0.0801
     25 C21         4.5160  -14.5445   -7.1731 C.ar      1 <0>        -0.1474
     26 C22         4.4082  -15.2313   -5.9780 C.ar      1 <0>        -0.0765
     27 C23         4.3452  -14.5380   -4.7848 C.ar      1 <0>        -0.1446
     28 O2          5.4260  -10.8193   -1.5410 O.3       1 <0>        -0.5435
     29 H2         -0.4437    1.8832    2.1023 H         1 <0>         0.1258
     30 H3          0.2229   -0.3217    2.9688 H         1 <0>         0.1263
     31 H4          2.1277   -1.5155    1.9674 H         1 <0>         0.1237
     32 H5          2.7036    1.7202   -0.7700 H         1 <0>         0.1249
     33 H6          0.7970    2.9051    0.2387 H         1 <0>         0.1285
     34 H7          4.3183   -0.1510   -0.4892 H         1 <0>         0.4133
     35 H8          1.5714   -2.3211   -0.0247 H         1 <0>         0.1326
     36 H9          1.7117   -4.7738    0.1196 H         1 <0>         0.1260
     37 H10         5.9673   -4.5311    0.2805 H         1 <0>         0.1263
     38 H11         5.8391   -2.0783    0.1244 H         1 <0>         0.1299
     39 H12         4.8168   -6.5842    0.8656 H         1 <0>         0.0945
     40 H13         3.0409   -6.6855    0.7990 H         1 <0>         0.0945
     41 H14         3.1296   -6.6108   -1.6780 H         1 <0>         0.1337
     42 H15         4.9054   -6.5095   -1.6113 H         1 <0>         0.1330
     43 H16         4.9176   -8.6183   -0.4980 H         1 <0>         0.4332
     44 H17         3.2930   -8.6423   -2.9432 H         1 <0>         0.1468
     45 H18         5.0688   -8.5410   -2.8766 H         1 <0>         0.1395
     46 H19         3.5083  -10.6858   -4.2886 H         1 <0>         0.0813
     47 H20         5.2832  -10.7278   -4.1619 H         1 <0>         0.0762
     48 H21         4.5154  -11.3846   -5.9919 H         1 <0>         0.1233
     49 H22         4.6386  -12.6281   -8.1126 H         1 <0>         0.1285
     50 H23         4.5696  -15.0884   -8.1046 H         1 <0>         0.1297
     51 H24         4.3778  -16.3109   -5.9770 H         1 <0>         0.1353
     52 H25         4.2655  -15.0751   -3.8512 H         1 <0>         0.1333
     53 H26         6.2561  -10.5107   -1.9293 H         1 <0>         0.3900
     54 H27         3.2738   -8.7120   -0.5597 H         1 <0>         0.4309
@<TRIPOS>BOND
     1    1    6 ar
     2    1    2 ar
     3    1   29 1
     4    2    3 ar
     5    2   30 1
     6    3    4 ar
     7    3   31 1
     8    4    5 ar
     9    4    7 1
    10    5    6 ar
    11    5   32 1
    12    6   33 1
    13    7    8 1
    14    7   34 1
    15    8   13 ar
    16    8    9 ar
    17    9   10 ar
    18    9   35 1
    19   10   11 ar
    20   10   36 1
    21   11   12 ar
    22   11   14 1
    23   12   13 ar
    24   12   37 1
    25   13   38 1
    26   14   15 1
    27   14   39 1
    28   14   40 1
    29   15   16 1
    30   15   41 1
    31   15   42 1
    32   16   17 1
    33   16   43 1
    34   16   54 1
    35   17   18 1
    36   17   44 1
    37   17   45 1
    38   18   19 1
    39   18   20 1
    40   18   28 1
    41   20   21 1
    42   20   46 1
    43   20   47 1
    44   21   22 1
    45   22   27 ar
    46   22   23 ar
    47   23   24 ar
    48   23   48 1
    49   24   25 ar
    50   24   49 1
    51   25   26 ar
    52   25   50 1
    53   26   27 ar
    54   26   51 1
    55   27   52 1
    56   28   53 1
@<TRIPOS>MOLECULE
CHEMBL1204005
   59    61     0     0     0
SMALL
USER_CHARGES

@<TRIPOS>ATOM
      1 C1          3.7313    0.8375    3.0781 C.ar      1 <0>        -0.1477
      2 C2          5.0942    1.0652    3.1314 C.ar      1 <0>        -0.1082
      3 C3          5.9233    0.5320    2.1640 C.ar      1 <0>        -0.1584
      4 C4          5.3867   -0.2335    1.1368 C.ar      1 <0>         0.1680
      5 C5          4.0173   -0.4604    1.0863 C.ar      1 <0>        -0.1051
      6 C6          3.1939    0.0757    2.0568 C.ar      1 <0>        -0.1094
      7 N1          6.2233   -0.7745    0.1553 N.pl3     1 <0>        -0.6852
      8 C7          5.9817   -2.0290   -0.3339 C.2       1 <0>         0.6382
      9 N2          6.8615   -2.6077   -1.1321 N.2       1 <0>        -0.6218
     10 C8          8.0347   -1.9890   -1.4092 C.1       1 <0>         0.3775
     11 N3          9.0182   -1.4702   -1.6415 N.1       1 <0>        -0.5416
     12 N4          4.8291   -2.6844    0.0032 N.2       1 <0>        -0.6691
     13 C9          4.7920   -4.0825   -0.0036 C.ar      1 <0>         0.2401
     14 C10         3.5777   -4.7459   -0.1229 C.ar      1 <0>        -0.1750
     15 C11         3.5446   -6.1266   -0.1298 C.ar      1 <0>        -0.0788
     16 C12         4.7188   -6.8484   -0.0179 C.ar      1 <0>        -0.2108
     17 C13         5.9295   -6.1909    0.1010 C.ar      1 <0>        -0.0811
     18 C14         5.9701   -4.8104    0.1032 C.ar      1 <0>        -0.1804
     19 C15         4.6789   -8.3549   -0.0253 C.3       1 <0>        -0.0753
     20 C16         4.8041   -8.8614   -1.4635 C.3       1 <0>        -0.0096
     21 N5          4.7652  -10.3299   -1.4707 N.4       1 <0>        -0.5036
     22 C17         4.8855  -10.8162   -2.8516 C.3       1 <0>        -0.0418
     23 C18         4.8449  -12.3456   -2.8590 C.3       1 <0>         0.0865
     24 H1          3.9003  -12.6861   -2.4348 H         1 <0>         0.1344
     25 C19         4.9702  -12.8522   -4.2973 C.3       1 <0>         0.0292
     26 O1          4.8158  -14.2727   -4.3172 O.3       1 <0>        -0.3030
     27 C20         4.9005  -14.8856   -5.5272 C.ar      1 <0>         0.1194
     28 C21         5.1333  -14.1359   -6.6710 C.ar      1 <0>        -0.2091
     29 C22         5.2194  -14.7614   -7.8997 C.ar      1 <0>        -0.0797
     30 C23         5.0734  -16.1333   -7.9901 C.ar      1 <0>        -0.1503
     31 C24         4.8409  -16.8827   -6.8517 C.ar      1 <0>        -0.0780
     32 C25         4.7600  -16.2627   -5.6198 C.ar      1 <0>        -0.1462
     33 O2          5.9285  -12.8546   -2.0787 O.3       1 <0>        -0.5449
     34 H2          3.0857    1.2518    3.8384 H         1 <0>         0.1149
     35 H3          5.5108    1.6609    3.9301 H         1 <0>         0.1176
     36 H4          6.9876    0.7105    2.2059 H         1 <0>         0.1152
     37 H5          3.5969   -1.0549    0.2887 H         1 <0>         0.1543
     38 H6          2.1290   -0.1004    2.0181 H         1 <0>         0.1184
     39 H7          6.9750   -0.2602   -0.1785 H         1 <0>         0.4037
     40 H8          2.6603   -4.1828   -0.2099 H         1 <0>         0.1122
     41 H9          2.6007   -6.6431   -0.2222 H         1 <0>         0.1025
     42 H10         6.8448   -6.7576    0.1885 H         1 <0>         0.0981
     43 H11         6.9163   -4.2975    0.1921 H         1 <0>         0.1229
     44 H12         5.5054   -8.7431    0.5700 H         1 <0>         0.0803
     45 H13         3.7343   -8.6954    0.3989 H         1 <0>         0.0807
     46 H14         3.9776   -8.4731   -2.0587 H         1 <0>         0.1315
     47 H15         5.7487   -8.5209   -1.8877 H         1 <0>         0.1311
     48 H16         5.5303  -10.6893   -0.9197 H         1 <0>         0.4304
     49 H17         4.0590  -10.4279   -3.4468 H         1 <0>         0.1455
     50 H18         5.8301  -10.4757   -3.2758 H         1 <0>         0.1384
     51 H19         4.1959  -12.3939   -4.9126 H         1 <0>         0.0818
     52 H20         5.9514  -12.5878   -4.6915 H         1 <0>         0.0766
     53 H21         5.2467  -13.0642   -6.6010 H         1 <0>         0.1250
     54 H22         5.4006  -14.1782   -8.7905 H         1 <0>         0.1281
     55 H23         5.1408  -16.6204   -8.9517 H         1 <0>         0.1280
     56 H24         4.7269  -17.9542   -6.9249 H         1 <0>         0.1336
     57 H25         4.5828  -16.8489   -4.7303 H         1 <0>         0.1326
     58 H26         6.8019  -12.5908   -2.3991 H         1 <0>         0.3899
     59 H27         3.8908  -10.6450   -1.0780 H         1 <0>         0.4274
@<TRIPOS>BOND
     1    1    6 ar
     2    1    2 ar
     3    1   34 1
     4    2    3 ar
     5    2   35 1
     6    3    4 ar
     7    3   36 1
     8    4    5 ar
     9    4    7 1
    10    5    6 ar
    11    5   37 1
    12    6   38 1
    13    7    8 1
    14    7   39 1
    15    8    9 2
    16    8   12 1
    17    9   10 1
    18   10   11 3
    19   12   13 1
    20   13   18 ar
    21   13   14 ar
    22   14   15 ar
    23   14   40 1
    24   15   16 ar
    25   15   41 1
    26   16   17 ar
    27   16   19 1
    28   17   18 ar
    29   17   42 1
    30   18   43 1
    31   19   20 1
    32   19   44 1
    33   19   45 1
    34   20   21 1
    35   20   46 1
    36   20   47 1
    37   21   22 1
    38   21   48 1
    39   21   59 1
    40   22   23 1
    41   22   49 1
    42   22   50 1
    43   23   24 1
    44   23   25 1
    45   23   33 1
    46   25   26 1
    47   25   51 1
    48   25   52 1
    49   26   27 1
    50   27   32 ar
    51   27   28 ar
    52   28   29 ar
    53   28   53 1
    54   29   30 ar
    55   29   54 1
    56   30   31 ar
    57   30   55 1
    58   31   32 ar
    59   31   56 1
    60   32   57 1
    61   33   58 1
@<TRIPOS>MOLECULE
CHEMBL1204005
   60    62     0     0     0
SMALL
USER_CHARGES

@<TRIPOS>ATOM
      1 C1          6.5389    1.5654    1.4219 C.ar      1 <0>        -0.1248
      2 C2          6.1598    1.9742    0.1565 C.ar      1 <0>        -0.0990
      3 C3          5.2373    1.2384   -0.5611 C.ar      1 <0>        -0.1380
      4 C4          4.6906    0.0864   -0.0105 C.ar      1 <0>         0.1515
      5 C5          5.0739   -0.3217    1.2606 C.ar      1 <0>        -0.1039
      6 C6          5.9966    0.4189    1.9730 C.ar      1 <0>        -0.1017
      7 N1          3.7559   -0.6607   -0.7342 N.pl3     1 <0>        -0.6473
      8 C7          3.7575   -2.0318   -0.6481 C.2       1 <0>         0.6590
      9 N2          2.7655   -2.7617   -1.2647 N.pl3     1 <0>        -0.6198
     10 C8          1.7294   -2.1261   -1.8634 C.1       1 <0>         0.3854
     11 N3          0.8606   -1.5933   -2.3653 N.1       1 <0>        -0.3717
     12 N4          4.7040   -2.6459    0.0216 N.2       1 <0>        -0.5785
     13 C9          4.6417   -4.0013    0.2082 C.ar      1 <0>         0.1475
     14 C10         3.6221   -4.5562    0.9841 C.ar      1 <0>        -0.1641
     15 C11         3.5653   -5.9222    1.1681 C.ar      1 <0>        -0.0837
     16 C12         4.5161   -6.7419    0.5862 C.ar      1 <0>        -0.1334
     17 C13         5.5294   -6.1986   -0.1835 C.ar      1 <0>        -0.0845
     18 C14         5.5942   -4.8349   -0.3811 C.ar      1 <0>        -0.1271
     19 C15         4.4479   -8.2332    0.7920 C.3       1 <0>        -0.0974
     20 C16         3.5981   -8.8624   -0.3138 C.3       1 <0>        -0.0075
     21 N5          3.5316  -10.3161   -0.1131 N.4       1 <0>        -0.5041
     22 C17         2.7156  -10.9202   -1.1749 C.3       1 <0>        -0.0415
     23 C18         2.6464  -12.4342   -0.9659 C.3       1 <0>         0.0854
     24 H1          2.1962  -12.6469    0.0038 H         1 <0>         0.1359
     25 C19         1.7965  -13.0634   -2.0717 C.3       1 <0>         0.0298
     26 O1          1.6350  -14.4593   -1.8124 O.3       1 <0>        -0.3027
     27 C20         0.9003  -15.1720   -2.7064 C.ar      1 <0>         0.1163
     28 C21         0.3510  -14.5417   -3.8136 C.ar      1 <0>        -0.2095
     29 C22        -0.3951  -15.2684   -4.7211 C.ar      1 <0>        -0.0801
     30 C23        -0.5949  -16.6227   -4.5266 C.ar      1 <0>        -0.1473
     31 C24        -0.0489  -17.2530   -3.4237 C.ar      1 <0>        -0.0764
     32 C25         0.7031  -16.5320   -2.5165 C.ar      1 <0>        -0.1444
     33 O2          3.9656  -12.9819   -1.0091 O.3       1 <0>        -0.5432
     34 H2          7.2636    2.1404    1.9793 H         1 <0>         0.1264
     35 H3          6.5852    2.8701   -0.2711 H         1 <0>         0.1298
     36 H4          4.9410    1.5586   -1.5491 H         1 <0>         0.1257
     37 H5          4.6504   -1.2168    1.6916 H         1 <0>         0.1331
     38 H6          6.2951    0.1021    2.9614 H         1 <0>         0.1269
     39 H7          3.1064   -0.2109   -1.2970 H         1 <0>         0.4199
     40 H8          2.8798   -3.9175    1.4394 H         1 <0>         0.1268
     41 H9          2.7772   -6.3528    1.7680 H         1 <0>         0.1249
     42 H10         6.2688   -6.8441   -0.6343 H         1 <0>         0.1263
     43 H11         6.3829   -4.4125   -0.9861 H         1 <0>         0.1320
     44 H12         5.4541   -8.6510    0.7591 H         1 <0>         0.0960
     45 H13         3.9977   -8.4460    1.7617 H         1 <0>         0.0955
     46 H14         2.5918   -8.4447   -0.2809 H         1 <0>         0.1335
     47 H15         4.0482   -8.6497   -1.2835 H         1 <0>         0.1335
     48 H16         4.4630  -10.7028   -0.1436 H         1 <0>         0.4337
     49 H17         1.7094  -10.5024   -1.1419 H         1 <0>         0.1467
     50 H18         3.1658  -10.7074   -2.1445 H         1 <0>         0.1396
     51 H19         0.8185  -12.5828   -2.0962 H         1 <0>         0.0810
     52 H20         2.2923  -12.9273   -3.0328 H         1 <0>         0.0762
     53 H21         0.5062  -13.4838   -3.9656 H         1 <0>         0.1232
     54 H22        -0.8229  -14.7783   -5.5832 H         1 <0>         0.1285
     55 H23        -1.1788  -17.1890   -5.2370 H         1 <0>         0.1297
     56 H24        -0.2067  -18.3109   -3.2737 H         1 <0>         0.1354
     57 H25         1.1331  -17.0257   -1.6576 H         1 <0>         0.1333
     58 H26         4.4273  -12.8300   -1.8450 H         1 <0>         0.3901
     59 H27         3.1149  -10.5130    0.7845 H         1 <0>         0.4311
     60 H28         2.8087   -3.7307   -1.2704 H         1 <0>         0.4417
@<TRIPOS>BOND
     1    1    6 ar
     2    1    2 ar
     3    1   34 1
     4    2    3 ar
     5    2   35 1
     6    3    4 ar
     7    3   36 1
     8    4    5 ar
     9    4    7 1
    10    5    6 ar
    11    5   37 1
    12    6   38 1
    13    7    8 1
    14    7   39 1
    15    8    9 1
    16    8   12 2
    17    9   10 1
    18    9   60 1
    19   10   11 3
    20   12   13 1
    21   13   18 ar
    22   13   14 ar
    23   14   15 ar
    24   14   40 1
    25   15   16 ar
    26   15   41 1
    27   16   17 ar
    28   16   19 1
    29   17   18 ar
    30   17   42 1
    31   18   43 1
    32   19   20 1
    33   19   44 1
    34   19   45 1
    35   20   21 1
    36   20   46 1
    37   20   47 1
    38   21   22 1
    39   21   48 1
    40   21   59 1
    41   22   23 1
    42   22   49 1
    43   22   50 1
    44   23   24 1
    45   23   25 1
    46   23   33 1
    47   25   26 1
    48   25   51 1
    49   25   52 1
    50   26   27 1
    51   27   32 ar
    52   27   28 ar
    53   28   29 ar
    54   28   53 1
    55   29   30 ar
    56   29   54 1
    57   30   31 ar
    58   30   55 1
    59   31   32 ar
    60   31   56 1
    61   32   57 1
    62   33   58 1
@<TRIPOS>MOLECULE
CHEMBL1204005
   60    62     0     0     0
SMALL
USER_CHARGES

@<TRIPOS>ATOM
      1 C1          2.4099    1.3447    0.7651 C.ar      1 <0>        -0.1283
      2 C2          3.6443    1.9534    0.8991 C.ar      1 <0>        -0.0784
      3 C3          4.7827    1.3171    0.4446 C.ar      1 <0>        -0.1376
      4 C4          4.6867    0.0644   -0.1476 C.ar      1 <0>         0.1360
      5 C5          3.4454   -0.5442   -0.2806 C.ar      1 <0>        -0.1839
      6 C6          2.3109    0.0975    0.1760 C.ar      1 <0>        -0.0804
      7 N1          5.8375   -0.5825   -0.6093 N.pl3     1 <0>        -0.6754
      8 C7          5.9122   -1.9482   -0.5815 C.2       1 <0>         0.6834
      9 N2          6.9436   -2.5648   -1.1312 N.2       1 <0>        -0.5512
     10 C8          7.9776   -1.8439   -1.6284 C.1       1 <0>         0.3669
     11 N3          8.8444   -1.2396   -2.0453 N.1       1 <0>        -0.4428
     12 N4          4.9192   -2.6756    0.0154 N.pl3     1 <0>        -0.6452
     13 C9          4.9681   -4.0732   -0.0035 C.ar      1 <0>         0.1685
     14 C10         3.7952   -4.8093   -0.1102 C.ar      1 <0>        -0.1365
     15 C11         3.8470   -6.1893   -0.1291 C.ar      1 <0>        -0.0887
     16 C12         5.0650   -6.8382   -0.0418 C.ar      1 <0>        -0.1212
     17 C13         6.2347   -6.1083    0.0646 C.ar      1 <0>        -0.0885
     18 C14         6.1902   -4.7280    0.0787 C.ar      1 <0>        -0.1011
     19 C15         5.1178   -8.3441   -0.0622 C.3       1 <0>        -0.0983
     20 C16         5.2512   -8.8303   -1.5068 C.3       1 <0>        -0.0080
     21 N5          5.3026  -10.2982   -1.5267 N.4       1 <0>        -0.5037
     22 C17         5.4306  -10.7650   -2.9136 C.3       1 <0>        -0.0418
     23 C18         5.4842  -12.2939   -2.9343 C.3       1 <0>         0.0858
     24 H1          4.5692  -12.6954   -2.4989 H         1 <0>         0.1357
     25 C19         5.6176  -12.7800   -4.3789 C.3       1 <0>         0.0294
     26 O1          5.5506  -14.2071   -4.4093 O.3       1 <0>        -0.3029
     27 C20         5.6537  -14.8038   -5.6260 C.ar      1 <0>         0.1165
     28 C21         5.8218  -14.0319   -6.7664 C.ar      1 <0>        -0.2094
     29 C22         5.9268  -14.6409   -8.0019 C.ar      1 <0>        -0.0801
     30 C23         5.8641  -16.0185   -8.1026 C.ar      1 <0>        -0.1475
     31 C24         5.6962  -16.7900   -6.9675 C.ar      1 <0>        -0.0766
     32 C25         5.5968  -16.1861   -5.7290 C.ar      1 <0>        -0.1446
     33 O2          6.6092  -12.7414   -2.1753 O.3       1 <0>        -0.5436
     34 H2          1.5217    1.8425    1.1254 H         1 <0>         0.1334
     35 H3          3.7182    2.9277    1.3593 H         1 <0>         0.1363
     36 H4          5.7464    1.7932    0.5492 H         1 <0>         0.1329
     37 H5          3.3673   -1.5181   -0.7409 H         1 <0>         0.1354
     38 H6          1.3453   -0.3752    0.0729 H         1 <0>         0.1351
     39 H7          6.5827   -0.0628   -0.9493 H         1 <0>         0.4300
     40 H8          4.1811   -2.2220    0.4518 H         1 <0>         0.4326
     41 H9          2.8436   -4.3031   -0.1781 H         1 <0>         0.1322
     42 H10         2.9353   -6.7622   -0.2118 H         1 <0>         0.1297
     43 H11         7.1843   -6.6181    0.1329 H         1 <0>         0.1292
     44 H12         7.1044   -4.1584    0.1577 H         1 <0>         0.1546
     45 H13         5.9759   -8.6855    0.5167 H         1 <0>         0.0969
     46 H14         4.2027   -8.7457    0.3732 H         1 <0>         0.0963
     47 H15         4.3930   -8.4889   -2.0857 H         1 <0>         0.1345
     48 H16         6.1662   -8.4287   -1.9422 H         1 <0>         0.1349
     49 H17         6.0969  -10.6142   -0.9907 H         1 <0>         0.4336
     50 H18         4.5725  -10.4236   -3.4926 H         1 <0>         0.1470
     51 H19         6.3457  -10.3634   -3.3491 H         1 <0>         0.1401
     52 H20         4.8070  -12.3654   -4.9781 H         1 <0>         0.0812
     53 H21         6.5743  -12.4524   -4.7856 H         1 <0>         0.0764
     54 H22         5.8701  -12.9558   -6.6884 H         1 <0>         0.1235
     55 H23         6.0577  -14.0404   -8.8901 H         1 <0>         0.1285
     56 H24         5.9461  -16.4926   -9.0695 H         1 <0>         0.1296
     57 H25         5.6471  -17.8658   -7.0488 H         1 <0>         0.1352
     58 H26         5.4701  -16.7894   -4.8422 H         1 <0>         0.1332
     59 H27         7.4595  -12.4216   -2.5067 H         1 <0>         0.3904
     60 H28         4.4555  -10.6699   -1.1236 H         1 <0>         0.4306
@<TRIPOS>BOND
     1    1    6 ar
     2    1    2 ar
     3    1   34 1
     4    2    3 ar
     5    2   35 1
     6    3    4 ar
     7    3   36 1
     8    4    5 ar
     9    4    7 1
    10    5    6 ar
    11    5   37 1
    12    6   38 1
    13    7    8 1
    14    7   39 1
    15    8    9 2
    16    8   12 1
    17    9   10 1
    18   10   11 3
    19   12   13 1
    20   12   40 1
    21   13   18 ar
    22   13   14 ar
    23   14   15 ar
    24   14   41 1
    25   15   16 ar
    26   15   42 1
    27   16   17 ar
    28   16   19 1
    29   17   18 ar
    30   17   43 1
    31   18   44 1
    32   19   20 1
    33   19   45 1
    34   19   46 1
    35   20   21 1
    36   20   47 1
    37   20   48 1
    38   21   22 1
    39   21   49 1
    40   21   60 1
    41   22   23 1
    42   22   50 1
    43   22   51 1
    44   23   24 1
    45   23   25 1
    46   23   33 1
    47   25   26 1
    48   25   52 1
    49   25   53 1
    50   26   27 1
    51   27   32 ar
    52   27   28 ar
    53   28   29 ar
    54   28   54 1
    55   29   30 ar
    56   29   55 1
    57   30   31 ar
    58   30   56 1
    59   31   32 ar
    60   31   57 1
    61   32   58 1
    62   33   59 1
@<TRIPOS>MOLECULE
CHEMBL1204005
   59    61     0     0     0
SMALL
USER_CHARGES

@<TRIPOS>ATOM
      1 C1          4.5478    1.4573   -2.8142 C.ar      1 <0>        -0.2022
      2 C2          4.5137    2.0975   -1.5890 C.ar      1 <0>        -0.0857
      3 C3          4.9142    1.4303   -0.4481 C.ar      1 <0>        -0.1700
      4 C4          5.3516    0.1147   -0.5322 C.ar      1 <0>         0.2000
      5 C5          5.3847   -0.5254   -1.7644 C.ar      1 <0>        -0.2360
      6 C6          4.9828    0.1475   -2.9015 C.ar      1 <0>        -0.0850
      7 N1          5.7583   -0.5637    0.6212 N.2       1 <0>        -0.7069
      8 C7          5.7147   -1.9305    0.6620 C.2       1 <0>         0.6295
      9 N2          6.5915   -2.5980    1.3913 N.2       1 <0>        -0.6185
     10 C8          7.4675   -1.9282    2.1788 C.1       1 <0>         0.4230
     11 N3          8.2019   -1.3667    2.8389 N.1       1 <0>        -0.5365
     12 N4          4.7635   -2.6061   -0.0522 N.pl3     1 <0>        -0.6713
     13 C9          4.7850   -4.0038   -0.0980 C.ar      1 <0>         0.2116
     14 C10         3.5980   -4.7145   -0.2208 C.ar      1 <0>        -0.1700
     15 C11         3.6228   -6.0946   -0.2663 C.ar      1 <0>        -0.0851
     16 C12         4.8277   -6.7689   -0.1897 C.ar      1 <0>        -0.1605
     17 C13         6.0112   -6.0644   -0.0675 C.ar      1 <0>        -0.0865
     18 C14         5.9939   -4.6840   -0.0267 C.ar      1 <0>        -0.1152
     19 C15         4.8508   -8.2749   -0.2392 C.3       1 <0>        -0.0875
     20 C16         4.9774   -8.7356   -1.6927 C.3       1 <0>        -0.0084
     21 N5          5.0000  -10.2036   -1.7409 N.4       1 <0>        -0.5037
     22 C17         5.1215  -10.6459   -3.1364 C.3       1 <0>        -0.0416
     23 C18         5.1450  -12.1749   -3.1866 C.3       1 <0>         0.0861
     24 H1          4.2215  -12.5667   -2.7604 H         1 <0>         0.1349
     25 C19         5.2715  -12.6356   -4.6401 C.3       1 <0>         0.0293
     26 O1          5.1766  -14.0603   -4.6983 O.3       1 <0>        -0.3028
     27 C20         5.2703  -14.6352   -5.9261 C.ar      1 <0>         0.1187
     28 C21         5.4556  -13.8449   -7.0511 C.ar      1 <0>        -0.2092
     29 C22         5.5510  -14.4319   -8.2980 C.ar      1 <0>        -0.0798
     30 C23         5.4614  -15.8057   -8.4254 C.ar      1 <0>        -0.1495
     31 C24         5.2762  -16.5956   -7.3057 C.ar      1 <0>        -0.0776
     32 C25         5.1864  -16.0139   -6.0559 C.ar      1 <0>        -0.1457
     33 O2          6.2596  -12.6591   -2.4348 O.3       1 <0>        -0.5442
     34 H2          4.2299    1.9799   -3.7043 H         1 <0>         0.1046
     35 H3          4.1737    3.1206   -1.5243 H         1 <0>         0.1085
     36 H4          4.8876    1.9310    0.5085 H         1 <0>         0.1113
     37 H5          5.7246   -1.5482   -1.8332 H         1 <0>         0.1057
     38 H6          5.0083   -0.3497   -3.8599 H         1 <0>         0.1020
     39 H7          4.0740   -2.1159   -0.5268 H         1 <0>         0.4155
     40 H8          2.6567   -4.1885   -0.2802 H         1 <0>         0.1223
     41 H9          2.7001   -6.6478   -0.3613 H         1 <0>         0.1164
     42 H10         6.9506   -6.5940   -0.0076 H         1 <0>         0.1180
     43 H11         6.9189   -4.1341    0.0647 H         1 <0>         0.1539
     44 H12         5.7010   -8.6443    0.3343 H         1 <0>         0.0903
     45 H13         3.9273   -8.6667    0.1871 H         1 <0>         0.0887
     46 H14         4.1272   -8.3663   -2.2662 H         1 <0>         0.1329
     47 H15         5.9009   -8.3438   -2.1189 H         1 <0>         0.1334
     48 H16         5.7870  -10.5455   -1.2100 H         1 <0>         0.4324
     49 H17         4.2713  -10.2766   -3.7099 H         1 <0>         0.1460
     50 H18         6.0450  -10.2542   -3.5627 H         1 <0>         0.1392
     51 H19         4.4703  -12.1936   -5.2324 H         1 <0>         0.0816
     52 H20         6.2353  -12.3191   -5.0390 H         1 <0>         0.0766
     53 H21         5.5249  -12.7717   -6.9522 H         1 <0>         0.1246
     54 H22         5.6953  -13.8171   -9.1742 H         1 <0>         0.1282
     55 H23         5.5359  -16.2627   -9.4011 H         1 <0>         0.1284
     56 H24         5.2062  -17.6684   -7.4079 H         1 <0>         0.1340
     57 H25         5.0462  -16.6316   -5.1812 H         1 <0>         0.1328
     58 H26         7.1167  -12.3498   -2.7585 H         1 <0>         0.3902
     59 H27         4.1451  -10.5663   -1.3463 H         1 <0>         0.4291
@<TRIPOS>BOND
     1    1    6 ar
     2    1    2 ar
     3    1   34 1
     4    2    3 ar
     5    2   35 1
     6    3    4 ar
     7    3   36 1
     8    4    5 ar
     9    4    7 1
    10    5    6 ar
    11    5   37 1
    12    6   38 1
    13    7    8 1
    14    8    9 2
    15    8   12 1
    16    9   10 1
    17   10   11 3
    18   12   13 1
    19   12   39 1
    20   13   18 ar
    21   13   14 ar
    22   14   15 ar
    23   14   40 1
    24   15   16 ar
    25   15   41 1
    26   16   17 ar
    27   16   19 1
    28   17   18 ar
    29   17   42 1
    30   18   43 1
    31   19   20 1
    32   19   44 1
    33   19   45 1
    34   20   21 1
    35   20   46 1
    36   20   47 1
    37   21   22 1
    38   21   48 1
    39   21   59 1
    40   22   23 1
    41   22   49 1
    42   22   50 1
    43   23   24 1
    44   23   25 1
    45   23   33 1
    46   25   26 1
    47   25   51 1
    48   25   52 1
    49   26   27 1
    50   27   32 ar
    51   27   28 ar
    52   28   29 ar
    53   28   53 1
    54   29   30 ar
    55   29   54 1
    56   30   31 ar
    57   30   55 1
    58   31   32 ar
    59   31   56 1
    60   32   57 1
    61   33   58 1
@<TRIPOS>MOLECULE
CHEMBL1204006
   61    63     0     0     0
SMALL
USER_CHARGES

@<TRIPOS>ATOM
      1 C1         -0.5806    0.3637    0.2524 C.ar      1 <0>        -0.1027
      2 C2          0.5485    0.6868   -0.4767 C.ar      1 <0>        -0.1207
      3 C3          1.6736   -0.1127   -0.3990 C.ar      1 <0>        -0.0972
      4 C4          1.6696   -1.2349    0.4081 C.ar      1 <0>        -0.1259
      5 C5          0.5407   -1.5575    1.1379 C.ar      1 <0>        -0.0970
      6 C6         -0.5848   -0.7588    1.0591 C.ar      1 <0>        -0.1204
      7 C7          2.8958   -2.1070    0.4921 C.3       1 <0>         0.1658
      8 N1          3.7598   -1.6317    1.5754 N.pl3     1 <0>        -0.6667
      9 C8          4.9212   -2.2634    1.8375 C.2       1 <0>         0.5526
     10 S1          5.3866   -3.6212    0.9045 S.2       1 <0>        -0.6067
     11 N2          5.7161   -1.8261    2.8342 N.pl3     1 <0>        -0.6415
     12 C9          6.8770   -2.5334    3.1645 C.ar      1 <0>         0.1447
     13 C10         7.7310   -2.9759    2.1626 C.ar      1 <0>        -0.0642
     14 C11         8.8765   -3.6735    2.4920 C.ar      1 <0>        -0.1025
     15 C12         9.1734   -3.9319    3.8177 C.ar      1 <0>        -0.1043
     16 C13         8.3252   -3.4926    4.8176 C.ar      1 <0>        -0.1047
     17 C14         7.1810   -2.7896    4.4952 C.ar      1 <0>        -0.1197
     18 C15        10.4237   -4.6942    4.1734 C.3       1 <0>        -0.1004
     19 C16        11.5806   -3.7127    4.3711 C.3       1 <0>        -0.0067
     20 N3         12.7994   -4.4558    4.7178 N.4       1 <0>        -0.5039
     21 C17        13.9102   -3.5134    4.9076 C.3       1 <0>        -0.0413
     22 C18        15.1796   -4.2873    5.2688 C.3       1 <0>         0.0853
     23 H1         15.4244   -4.9800    4.4635 H         1 <0>         0.1362
     24 C19        16.3365   -3.3058    5.4665 C.3       1 <0>         0.0298
     25 O1         17.5460   -4.0336    5.6888 O.3       1 <0>        -0.3027
     26 C20        18.6770   -3.3059    5.8841 C.ar      1 <0>         0.1166
     27 C21        18.6228   -1.9197    5.8679 C.ar      1 <0>        -0.2095
     28 C22        19.7737   -1.1822    6.0672 C.ar      1 <0>        -0.0801
     29 C23        20.9792   -1.8244    6.2822 C.ar      1 <0>        -0.1476
     30 C24        21.0360   -3.2058    6.2984 C.ar      1 <0>        -0.0765
     31 C25        19.8867   -3.9478    6.1058 C.ar      1 <0>        -0.1445
     32 O2         14.9639   -5.0189    6.4772 O.3       1 <0>        -0.5433
     33 H2         -1.4581    0.9908    0.1951 H         1 <0>         0.1278
     34 H3          0.5516    1.5636   -1.1073 H         1 <0>         0.1280
     35 H4          2.5555    0.1393   -0.9691 H         1 <0>         0.1251
     36 H5          0.5375   -2.4345    1.7682 H         1 <0>         0.1252
     37 H6         -1.4669   -1.0110    1.6289 H         1 <0>         0.1281
     38 H7          2.5967   -3.1362    0.6908 H         1 <0>         0.1005
     39 H8          3.4388   -2.0623   -0.4520 H         1 <0>         0.1005
     40 H9          3.4961   -0.8624    2.1041 H         1 <0>         0.4018
     41 H10         5.4833   -1.0210    3.3225 H         1 <0>         0.4095
     42 H11         7.4994   -2.7751    1.1270 H         1 <0>         0.1540
     43 H12         9.5410   -4.0179    1.7134 H         1 <0>         0.1296
     44 H13         8.5598   -3.6960    5.8520 H         1 <0>         0.1283
     45 H14         6.5210   -2.4432    5.2768 H         1 <0>         0.1293
     46 H15        10.2592   -5.2522    5.0952 H         1 <0>         0.0967
     47 H16        10.6685   -5.3868    3.3681 H         1 <0>         0.0983
     48 H17        11.7452   -3.1546    3.4493 H         1 <0>         0.1352
     49 H18        11.3359   -3.0200    5.1764 H         1 <0>         0.1335
     50 H19        12.6471   -4.9723    5.5711 H         1 <0>         0.4334
     51 H20        14.0748   -2.9553    3.9859 H         1 <0>         0.1472
     52 H21        13.6655   -2.8207    5.7129 H         1 <0>         0.1394
     53 H22        16.4437   -2.6864    4.5760 H         1 <0>         0.0813
     54 H23        16.1310   -2.6707    6.3282 H         1 <0>         0.0760
     55 H24        17.6816   -1.4176    5.6993 H         1 <0>         0.1233
     56 H25        19.7320   -0.1031    6.0547 H         1 <0>         0.1284
     57 H26        21.8780   -1.2461    6.4375 H         1 <0>         0.1296
     58 H27        21.9788   -3.7052    6.4662 H         1 <0>         0.1352
     59 H28        19.9308   -5.0268    6.1229 H         1 <0>         0.1333
     60 H29        14.7413   -4.4650    7.2379 H         1 <0>         0.3898
     61 H30        13.0260   -5.0969    3.9724 H         1 <0>         0.4316
@<TRIPOS>BOND
     1    1    6 ar
     2    1    2 ar
     3    1   33 1
     4    2    3 ar
     5    2   34 1
     6    3    4 ar
     7    3   35 1
     8    4    5 ar
     9    4    7 1
    10    5    6 ar
    11    5   36 1
    12    6   37 1
    13    7    8 1
    14    7   38 1
    15    7   39 1
    16    8    9 1
    17    8   40 1
    18    9   10 2
    19    9   11 1
    20   11   12 1
    21   11   41 1
    22   12   17 ar
    23   12   13 ar
    24   13   14 ar
    25   13   42 1
    26   14   15 ar
    27   14   43 1
    28   15   16 ar
    29   15   18 1
    30   16   17 ar
    31   16   44 1
    32   17   45 1
    33   18   19 1
    34   18   46 1
    35   18   47 1
    36   19   20 1
    37   19   48 1
    38   19   49 1
    39   20   21 1
    40   20   50 1
    41   20   61 1
    42   21   22 1
    43   21   51 1
    44   21   52 1
    45   22   23 1
    46   22   24 1
    47   22   32 1
    48   24   25 1
    49   24   53 1
    50   24   54 1
    51   25   26 1
    52   26   31 ar
    53   26   27 ar
    54   27   28 ar
    55   27   55 1
    56   28   29 ar
    57   28   56 1
    58   29   30 ar
    59   29   57 1
    60   30   31 ar
    61   30   58 1
    62   31   59 1
    63   32   60 1
@<TRIPOS>MOLECULE
CHEMBL248547
   71    75     0     0     0
SMALL
USER_CHARGES

@<TRIPOS>ATOM
      1 C1          0.2942    1.2582    0.2970 C.3       1 <0>        -0.1821
      2 C2          0.0665   -0.2460    0.1342 C.3       1 <0>         0.0599
      3 C3          0.6219   -0.9810    1.3557 C.3       1 <0>        -0.1816
      4 C4         -1.4328   -0.5243    0.0095 C.3       1 <0>        -0.0906
      5 C5         -2.1383   -0.0409    1.2503 C.ar      1 <0>        -0.0988
      6 C6         -2.2992   -0.8915    2.3284 C.ar      1 <0>        -0.0946
      7 C7         -2.9460   -0.4510    3.4668 C.ar      1 <0>        -0.1111
      8 C8         -3.4338    0.8465    3.5280 C.ar      1 <0>         0.1136
      9 C9         -3.2705    1.6982    2.4449 C.ar      1 <0>        -0.1096
     10 C10        -2.6185    1.2544    1.3109 C.ar      1 <0>        -0.0948
     11 O1         -4.0708    1.2821    4.6466 O.3       1 <0>        -0.2436
     12 C11        -3.3154    1.6018    5.7250 C.ar      1 <0>         0.3365
     13 C12        -3.9383    1.9476    6.9207 C.ar      1 <0>        -0.1823
     14 C13        -3.1640    2.2720    8.0153 C.ar      1 <0>         0.0210
     15 C14        -1.7683    2.2399    7.8772 C.ar      1 <0>        -0.2198
     16 C15        -1.2182    1.8831    6.6455 C.ar      1 <0>         0.1753
     17 N1         -1.9949    1.5754    5.6279 N.ar      1 <0>        -0.5341
     18 C16        -0.8947    2.5788    9.0178 C.2       1 <0>         0.5702
     19 O2         -1.3836    2.8889   10.0869 O.2       1 <0>        -0.5292
     20 N2          0.4450    2.5447    8.8740 N.am      1 <0>        -0.8496
     21 N3          0.7543   -0.7172   -1.0753 N.4       1 <0>        -0.4973
     22 C17         2.1938   -0.4500   -0.9557 C.3       1 <0>        -0.0509
     23 C18         2.9101   -0.9408   -2.2154 C.3       1 <0>         0.0877
     24 H1          2.5144   -0.4172   -3.0857 H         1 <0>         0.1354
     25 C19         4.4094   -0.6625   -2.0908 C.3       1 <0>         0.0285
     26 O3          5.0622   -1.0136   -3.3125 O.3       1 <0>        -0.2965
     27 C20         6.4070   -0.8264   -3.3694 C.ar      1 <0>         0.1739
     28 C21         7.0863   -0.3199   -2.2684 C.ar      1 <0>        -0.2303
     29 C22         8.4537   -0.1325   -2.3328 C.ar      1 <0>        -0.0423
     30 C23         9.1483   -0.4453   -3.4835 C.ar      1 <0>        -0.1663
     31 C24         8.4771   -0.9538   -4.5935 C.ar      1 <0>         0.1925
     32 C25         7.1019   -1.1446   -4.5199 C.ar      1 <0>        -0.1341
     33 C26         6.6882   -1.7020   -5.8557 C.3       1 <0>        -0.1442
     34 C27         5.3668   -1.3233   -6.5123 C.3       1 <0>        -0.1188
     35 C28         5.5857   -2.7450   -5.9870 C.3       1 <0>        -0.1180
     36 C29         7.9687   -1.7968   -6.6463 C.2       1 <0>         0.5601
     37 O4          8.0883   -2.1986   -7.7844 O.2       1 <0>        -0.4857
     38 N4          8.9518   -1.3387   -5.8489 N.am      1 <0>        -0.6578
     39 O5          2.6974   -2.3457   -2.3675 O.3       1 <0>        -0.5424
     40 H2          1.3624    1.4565    0.3858 H         1 <0>         0.0818
     41 H3         -0.1014    1.7819   -0.5733 H         1 <0>         0.0840
     42 H4         -0.2161    1.6079    1.1945 H         1 <0>         0.1119
     43 H5          0.1116   -0.6314    2.2532 H         1 <0>         0.1122
     44 H6          0.4597   -2.0526    1.2397 H         1 <0>         0.0834
     45 H7          1.6900   -0.7827    1.4445 H         1 <0>         0.0812
     46 H8         -1.8284   -0.0006   -0.8607 H         1 <0>         0.0994
     47 H9         -1.5950   -1.5959   -0.1065 H         1 <0>         0.0993
     48 H10        -1.9193   -1.9014    2.2803 H         1 <0>         0.1317
     49 H11        -3.0721   -1.1161    4.3084 H         1 <0>         0.1326
     50 H12        -3.6497    2.7085    2.4899 H         1 <0>         0.1366
     51 H13        -2.4876    1.9182    0.4691 H         1 <0>         0.1331
     52 H14        -5.0160    1.9621    6.9906 H         1 <0>         0.1567
     53 H15        -3.6209    2.5444    8.9552 H         1 <0>         0.1619
     54 H16        -0.1451    1.8547    6.5270 H         1 <0>         0.1641
     55 H17         0.8351    2.2973    8.0210 H         1 <0>         0.3985
     56 H18         1.0190    2.7674    9.6235 H         1 <0>         0.4111
     57 H19         0.6041   -1.7092   -1.1827 H         1 <0>         0.4319
     58 H20         2.3560    0.6216   -0.8397 H         1 <0>         0.1488
     59 H21         2.5894   -0.9737   -0.0854 H         1 <0>         0.1421
     60 H22         4.5665    0.3965   -1.8862 H         1 <0>         0.0834
     61 H23         4.8224   -1.2554   -1.2747 H         1 <0>         0.0787
     62 H24         6.5474   -0.0733   -1.3656 H         1 <0>         0.1320
     63 H25         8.9822    0.2615   -1.4773 H         1 <0>         0.1389
     64 H26        10.2170   -0.2948   -3.5239 H         1 <0>         0.1349
     65 H27         4.6923   -0.6772   -5.9505 H         1 <0>         0.1092
     66 H28         5.3641   -1.1805   -7.5929 H         1 <0>         0.1101
     67 H29         5.7270   -3.5373   -6.7222 H         1 <0>         0.1099
     68 H30         5.0552   -3.0339   -5.0797 H         1 <0>         0.1126
     69 H31         9.8840   -1.2910   -6.1126 H         1 <0>         0.4211
     70 H32         3.0255   -2.8755   -1.6280 H         1 <0>         0.3896
     71 H33         0.3880   -0.2325   -1.8809 H         1 <0>         0.4291
@<TRIPOS>BOND
     1    1    2 1
     2    1   40 1
     3    1   41 1
     4    1   42 1
     5    2    3 1
     6    2    4 1
     7    2   21 1
     8    3   43 1
     9    3   44 1
    10    3   45 1
    11    4    5 1
    12    4   46 1
    13    4   47 1
    14    5   10 ar
    15    5    6 ar
    16    6    7 ar
    17    6   48 1
    18    7    8 ar
    19    7   49 1
    20    8    9 ar
    21    8   11 1
    22    9   10 ar
    23    9   50 1
    24   10   51 1
    25   11   12 1
    26   12   17 ar
    27   12   13 ar
    28   13   14 ar
    29   13   52 1
    30   14   15 ar
    31   14   53 1
    32   15   16 ar
    33   15   18 1
    34   16   17 ar
    35   16   54 1
    36   18   19 2
    37   18   20 am
    38   20   55 1
    39   20   56 1
    40   21   22 1
    41   21   57 1
    42   21   71 1
    43   22   23 1
    44   22   58 1
    45   22   59 1
    46   23   24 1
    47   23   25 1
    48   23   39 1
    49   25   26 1
    50   25   60 1
    51   25   61 1
    52   26   27 1
    53   27   32 ar
    54   27   28 ar
    55   28   29 ar
    56   28   62 1
    57   29   30 ar
    58   29   63 1
    59   30   31 ar
    60   30   64 1
    61   31   38 1
    62   31   32 ar
    63   32   33 1
    64   33   35 1
    65   33   34 1
    66   33   36 1
    67   34   35 1
    68   34   65 1
    69   34   66 1
    70   35   67 1
    71   35   68 1
    72   36   37 2
    73   36   38 am
    74   38   69 1
    75   39   70 1
@<TRIPOS>MOLECULE
CHEMBL33755
   82    86     0     0     0
SMALL
USER_CHARGES

@<TRIPOS>ATOM
      1 C1         16.5492   14.4540   -8.6574 C.ar      1 <0>        -0.1639
      2 C2         16.6912   13.0749   -8.6888 C.ar      1 <0>        -0.0543
      3 C3         16.5398   12.3689   -7.5054 C.ar      1 <0>        -0.2005
      4 C4         16.2545   13.0582   -6.3417 C.ar      1 <0>         0.1175
      5 N1         16.1260   14.3704   -6.3493 N.ar      1 <0>        -0.4748
      6 C5         16.2636   15.0743   -7.4561 C.ar      1 <0>         0.1222
      7 C6         16.6841   10.8690   -7.4879 C.3       1 <0>         0.1415
      8 H1         17.3141   10.5548   -8.3201 H         1 <0>         0.1342
      9 C7         15.3039   10.2223   -7.6207 C.3       1 <0>        -0.0429
     10 N2         15.4445    8.7601   -7.6037 N.4       1 <0>        -0.5055
     11 C8         14.1193    8.1392   -7.7312 C.3       1 <0>        -0.0089
     12 C9         14.2657    6.6163   -7.7135 C.3       1 <0>        -0.0998
     13 C10        12.9062    5.9794   -7.8443 C.ar      1 <0>        -0.1178
     14 C11        12.1655    5.6957   -6.7116 C.ar      1 <0>        -0.0885
     15 C12        10.9193    5.1120   -6.8279 C.ar      1 <0>        -0.1245
     16 C13        10.4101    4.8099   -8.0845 C.ar      1 <0>         0.1627
     17 C14        11.1569    5.0962   -9.2203 C.ar      1 <0>        -0.1486
     18 C15        12.4000    5.6851   -9.0971 C.ar      1 <0>        -0.0827
     19 N3          9.1502    4.2191   -8.2057 N.pl3     1 <0>        -1.0583
     20 S1          8.0663    4.8004   -9.3146 S.o2      1 <0>         2.6878
     21 O1          8.7443    4.8406  -10.5628 O.2       1 <0>        -0.9397
     22 O2          6.8613    4.0715   -9.1253 O.2       1 <0>        -0.9346
     23 C16         7.7183    6.4712   -8.8765 C.ar      1 <0>        -0.6586
     24 C17         6.7503    6.7475   -7.9279 C.ar      1 <0>        -0.0159
     25 C18         6.4736    8.0545   -7.5810 C.ar      1 <0>        -0.0971
     26 C19         7.1715    9.0964   -8.1881 C.ar      1 <0>         0.0277
     27 C20         8.1456    8.8123   -9.1430 C.ar      1 <0>        -0.0890
     28 C21         8.4181    7.5015   -9.4783 C.ar      1 <0>        -0.0225
     29 C22         6.8780   10.5038   -7.8194 C.2       1 <0>         0.2804
     30 N4          7.4771   11.5915   -8.3363 N.2       1 <0>        -0.5386
     31 C23         6.9859   12.6702   -7.7963 C.2       1 <0>         0.3051
     32 O3          6.0490   12.3120   -6.9089 O.3       1 <0>        -0.0913
     33 N5          5.9882   10.8939   -6.9405 N.2       1 <0>        -0.3209
     34 C24         7.4021   14.0829   -8.1156 C.3       1 <0>        -0.0402
     35 C25         6.5402   14.6225   -9.2588 C.3       1 <0>        -0.1199
     36 C26         6.9628   16.0568   -9.5830 C.3       1 <0>        -0.1121
     37 C27         6.1009   16.5964  -10.7262 C.3       1 <0>        -0.0883
     38 C28         6.3812   15.7944  -11.9986 C.3       1 <0>        -0.1151
     39 C29         5.5193   16.3340  -13.1418 C.3       1 <0>        -0.1222
     40 C30         5.8558   17.8070  -13.3828 C.3       1 <0>        -0.1209
     41 C31         5.5755   18.6090  -12.1103 C.3       1 <0>        -0.1220
     42 C32         6.4374   18.0694  -10.9672 C.3       1 <0>        -0.1139
     43 O4         17.2841   10.4624   -6.2563 O.3       1 <0>        -0.5459
     44 H2         16.6648   15.0363   -9.5596 H         1 <0>         0.1473
     45 H3         16.9140   12.5630   -9.6133 H         1 <0>         0.1413
     46 H4         16.1351   12.5155   -5.4156 H         1 <0>         0.1525
     47 H5         16.1519   16.1480   -7.4231 H         1 <0>         0.1670
     48 H6         14.6739   10.5364   -6.7885 H         1 <0>         0.1372
     49 H7         14.8462   10.5324   -8.5601 H         1 <0>         0.1451
     50 H8         16.0277    8.4693   -8.3741 H         1 <0>         0.4302
     51 H9         13.4893    8.4533   -6.8991 H         1 <0>         0.1332
     52 H10        13.6616    8.4493   -8.6707 H         1 <0>         0.1350
     53 H11        14.8957    6.3022   -8.5457 H         1 <0>         0.0987
     54 H12        14.7234    6.3063   -6.7741 H         1 <0>         0.0977
     55 H13        12.5621    5.9305   -5.7349 H         1 <0>         0.1304
     56 H14        10.3414    4.8904   -5.9428 H         1 <0>         0.1361
     57 H15        10.7641    4.8622  -10.1987 H         1 <0>         0.1628
     58 H16        12.9792    5.9120   -9.9799 H         1 <0>         0.1338
     59 H17         8.9102    3.4683   -7.6404 H         1 <0>         0.4335
     60 H18         6.2096    5.9392   -7.4582 H         1 <0>         0.1520
     61 H19         5.7173    8.2691   -6.8405 H         1 <0>         0.1465
     62 H20         8.6892    9.6162   -9.6169 H         1 <0>         0.1493
     63 H21         9.1760    7.2800  -10.2151 H         1 <0>         0.1505
     64 H22         7.2690   14.7091   -7.2334 H         1 <0>         0.1087
     65 H23         8.4503   14.0941   -8.4144 H         1 <0>         0.1144
     66 H24         6.6733   13.9963  -10.1410 H         1 <0>         0.0776
     67 H25         5.4920   14.6113   -8.9601 H         1 <0>         0.0736
     68 H26         6.8297   16.6830   -8.7008 H         1 <0>         0.0696
     69 H27         8.0110   16.0680   -9.8817 H         1 <0>         0.0676
     70 H28         5.0475   16.5028  -10.4624 H         1 <0>         0.0719
     71 H29         7.4347   15.8880  -12.2624 H         1 <0>         0.0614
     72 H30         6.1415   14.7451  -11.8269 H         1 <0>         0.0609
     73 H31         5.7190   15.7627  -14.0483 H         1 <0>         0.0609
     74 H32         4.4659   16.2404  -12.8780 H         1 <0>         0.0614
     75 H33         6.9092   17.9006  -13.6466 H         1 <0>         0.0606
     76 H34         5.2417   18.1914  -14.1972 H         1 <0>         0.0615
     77 H35         5.8152   19.6583  -12.2820 H         1 <0>         0.0625
     78 H36         4.5220   18.5154  -11.8465 H         1 <0>         0.0618
     79 H37         6.2377   18.6407  -10.0606 H         1 <0>         0.0623
     80 H38         7.4908   18.1630  -11.2310 H         1 <0>         0.0616
     81 H39        16.7765   10.7094   -5.4712 H         1 <0>         0.3898
     82 H40        15.8681    8.4731   -6.7341 H         1 <0>         0.4327
@<TRIPOS>BOND
     1    1    6 ar
     2    1    2 ar
     3    1   44 1
     4    2    3 ar
     5    2   45 1
     6    3    4 ar
     7    3    7 1
     8    4    5 ar
     9    4   46 1
    10    5    6 ar
    11    6   47 1
    12    7    8 1
    13    7    9 1
    14    7   43 1
    15    9   10 1
    16    9   48 1
    17    9   49 1
    18   10   11 1
    19   10   50 1
    20   10   82 1
    21   11   12 1
    22   11   51 1
    23   11   52 1
    24   12   13 1
    25   12   53 1
    26   12   54 1
    27   13   18 ar
    28   13   14 ar
    29   14   15 ar
    30   14   55 1
    31   15   16 ar
    32   15   56 1
    33   16   17 ar
    34   16   19 1
    35   17   18 ar
    36   17   57 1
    37   18   58 1
    38   19   20 1
    39   19   59 1
    40   20   21 2
    41   20   22 2
    42   20   23 1
    43   23   28 ar
    44   23   24 ar
    45   24   25 ar
    46   24   60 1
    47   25   26 ar
    48   25   61 1
    49   26   27 ar
    50   26   29 1
    51   27   28 ar
    52   27   62 1
    53   28   63 1
    54   29   33 2
    55   29   30 1
    56   30   31 2
    57   31   32 1
    58   31   34 1
    59   32   33 1
    60   34   35 1
    61   34   64 1
    62   34   65 1
    63   35   36 1
    64   35   66 1
    65   35   67 1
    66   36   37 1
    67   36   68 1
    68   36   69 1
    69   37   42 1
    70   37   38 1
    71   37   70 1
    72   38   39 1
    73   38   71 1
    74   38   72 1
    75   39   40 1
    76   39   73 1
    77   39   74 1
    78   40   41 1
    79   40   75 1
    80   40   76 1
    81   41   42 1
    82   41   77 1
    83   41   78 1
    84   42   79 1
    85   42   80 1
    86   43   81 1
@<TRIPOS>MOLECULE
CHEMBL33755
   81    85     0     0     0
SMALL
USER_CHARGES

@<TRIPOS>ATOM
      1 C1         -0.0167    1.3776    0.0096 C.ar      1 <0>        -0.1653
      2 C2          1.1849    2.0698    0.0019 C.ar      1 <0>        -0.0551
      3 C3          2.3651    1.3426   -0.0133 C.ar      1 <0>        -0.1953
      4 C4          2.3054   -0.0383   -0.0202 C.ar      1 <0>         0.1171
      5 N1          1.1443   -0.6632   -0.0129 N.ar      1 <0>        -0.4762
      6 C5          0.0021   -0.0041    0.0020 C.ar      1 <0>         0.1183
      7 C6          3.6964    2.0488   -0.0227 C.3       1 <0>         0.1403
      8 H1          3.5852    3.0397    0.4177 H         1 <0>         0.1328
      9 C7          4.1918    2.1840   -1.4640 C.3       1 <0>        -0.0425
     10 N2          5.4895    2.8724   -1.4731 N.4       1 <0>        -0.5054
     11 C8          5.9652    3.0022   -2.8569 C.3       1 <0>        -0.0112
     12 C9          7.3168    3.7191   -2.8665 C.3       1 <0>        -0.0713
     13 C10         7.8047    3.8523   -4.2861 C.ar      1 <0>        -0.2350
     14 C11         8.5838    2.8554   -4.8441 C.ar      1 <0>        -0.0637
     15 C12         9.0327    2.9742   -6.1447 C.ar      1 <0>        -0.1800
     16 C13         8.7007    4.0968   -6.8926 C.ar      1 <0>         0.2962
     17 C14         7.9179    5.0963   -6.3289 C.ar      1 <0>        -0.2646
     18 C15         7.4677    4.9685   -5.0296 C.ar      1 <0>        -0.0476
     19 N3          9.1534    4.2204   -8.2081 N.2       1 <0>        -1.0807
     20 S1          8.7565    5.5594   -9.0980 S.o2      1 <0>         2.6066
     21 O1          7.3500    5.5136   -9.2953 O.2       1 <0>        -1.0230
     22 O2          9.4036    6.6637   -8.4807 O.2       1 <0>        -1.0211
     23 C16         9.4944    5.3669  -10.6864 C.ar      1 <0>        -0.5955
     24 C17        10.7740    5.8403  -10.9136 C.ar      1 <0>        -0.0273
     25 C18        11.3569    5.6922  -12.1559 C.ar      1 <0>        -0.1000
     26 C19        10.6539    5.0644  -13.1820 C.ar      1 <0>        -0.0030
     27 C20         9.3652    4.5893  -12.9476 C.ar      1 <0>        -0.0885
     28 C21         8.7942    4.7378  -11.6998 C.ar      1 <0>        -0.0296
     29 C22        11.2753    4.9026  -14.5201 C.2       1 <0>         0.2971
     30 N4         10.6991    4.3218  -15.5877 N.2       1 <0>        -0.5335
     31 C23        11.5150    4.3452  -16.6027 C.2       1 <0>         0.2954
     32 O3         12.6501    4.9449  -16.2213 O.3       1 <0>        -0.1017
     33 N5         12.4744    5.3068  -14.8598 N.2       1 <0>        -0.3312
     34 C24        11.2301    3.7903  -17.9746 C.3       1 <0>        -0.0379
     35 C25        10.5946    4.8780  -18.8428 C.3       1 <0>        -0.1192
     36 C26        10.3053    4.3147  -20.2356 C.3       1 <0>        -0.1128
     37 C27         9.6698    5.4024  -21.1039 C.3       1 <0>        -0.0872
     38 C28         8.3035    5.7807  -20.5285 C.3       1 <0>        -0.1176
     39 C29         7.6680    6.8685  -21.3968 C.3       1 <0>        -0.1214
     40 C30         7.4932    6.3447  -22.8237 C.3       1 <0>        -0.1205
     41 C31         8.8595    5.9664  -23.3990 C.3       1 <0>        -0.1207
     42 C32         9.4950    4.8787  -22.5308 C.3       1 <0>        -0.1142
     43 O4          4.6418    1.2932    0.7371 O.3       1 <0>        -0.5469
     44 H2         -0.9552    1.9117    0.0259 H         1 <0>         0.1455
     45 H3          1.2009    3.1496    0.0072 H         1 <0>         0.1412
     46 H4          3.2203   -0.6121   -0.0320 H         1 <0>         0.1538
     47 H5         -0.9294   -0.5505    0.0083 H         1 <0>         0.1651
     48 H6          4.3030    1.1932   -1.9044 H         1 <0>         0.1361
     49 H7          3.4707    2.7604   -2.0435 H         1 <0>         0.1429
     50 H8          5.3866    3.7896   -1.0655 H         1 <0>         0.4264
     51 H9          6.0764    2.0113   -3.2973 H         1 <0>         0.1308
     52 H10         5.2440    3.5785   -3.4365 H         1 <0>         0.1305
     53 H11         7.2056    4.7100   -2.4261 H         1 <0>         0.0797
     54 H12         8.0379    3.1428   -2.2869 H         1 <0>         0.0810
     55 H13         8.8419    1.9830   -4.2620 H         1 <0>         0.1049
     56 H14         9.6415    2.1954   -6.5798 H         1 <0>         0.1172
     57 H15         7.6583    5.9706   -6.9075 H         1 <0>         0.1016
     58 H16         6.8554    5.7432   -4.5922 H         1 <0>         0.1020
     59 H17        11.3180    6.3271  -10.1177 H         1 <0>         0.1469
     60 H18        12.3559    6.0625  -12.3324 H         1 <0>         0.1379
     61 H19         8.8158    4.1023  -13.7395 H         1 <0>         0.1444
     62 H20         7.7970    4.3660  -11.5157 H         1 <0>         0.1467
     63 H21        12.1616    3.4578  -18.4327 H         1 <0>         0.1056
     64 H22        10.5453    2.9465  -17.8902 H         1 <0>         0.1150
     65 H23         9.6631    5.2105  -18.3847 H         1 <0>         0.0778
     66 H24        11.2794    5.7218  -18.9272 H         1 <0>         0.0714
     67 H25        11.2369    3.9822  -20.6937 H         1 <0>         0.0682
     68 H26         9.6205    3.4709  -20.1512 H         1 <0>         0.0689
     69 H27        10.3149    6.2809  -21.1158 H         1 <0>         0.0706
     70 H28         7.6584    4.9022  -20.5166 H         1 <0>         0.0628
     71 H29         8.4280    6.1538  -19.5120 H         1 <0>         0.0635
     72 H30         6.6946    7.1380  -20.9869 H         1 <0>         0.0606
     73 H31         8.3131    7.7470  -21.4087 H         1 <0>         0.0603
     74 H32         6.8481    5.4662  -22.8118 H         1 <0>         0.0609
     75 H33         7.0405    7.1196  -23.4422 H         1 <0>         0.0593
     76 H34         8.7350    5.5933  -24.4156 H         1 <0>         0.0605
     77 H35         9.5046    6.8449  -23.4109 H         1 <0>         0.0606
     78 H36        10.4684    4.6091  -22.9407 H         1 <0>         0.0615
     79 H37         8.8499    4.0002  -22.5189 H         1 <0>         0.0622
     80 H38         4.7910    0.3986    0.4015 H         1 <0>         0.3893
     81 H39         6.1570    2.3389   -0.9367 H         1 <0>         0.4292
@<TRIPOS>BOND
     1    1    6 ar
     2    1    2 ar
     3    1   44 1
     4    2    3 ar
     5    2   45 1
     6    3    4 ar
     7    3    7 1
     8    4    5 ar
     9    4   46 1
    10    5    6 ar
    11    6   47 1
    12    7    8 1
    13    7    9 1
    14    7   43 1
    15    9   10 1
    16    9   48 1
    17    9   49 1
    18   10   11 1
    19   10   50 1
    20   10   81 1
    21   11   12 1
    22   11   51 1
    23   11   52 1
    24   12   13 1
    25   12   53 1
    26   12   54 1
    27   13   18 ar
    28   13   14 ar
    29   14   15 ar
    30   14   55 1
    31   15   16 ar
    32   15   56 1
    33   16   17 ar
    34   16   19 1
    35   17   18 ar
    36   17   57 1
    37   18   58 1
    38   19   20 1
    39   20   21 2
    40   20   22 2
    41   20   23 1
    42   23   28 ar
    43   23   24 ar
    44   24   25 ar
    45   24   59 1
    46   25   26 ar
    47   25   60 1
    48   26   27 ar
    49   26   29 1
    50   27   28 ar
    51   27   61 1
    52   28   62 1
    53   29   33 2
    54   29   30 1
    55   30   31 2
    56   31   32 1
    57   31   34 1
    58   32   33 1
    59   34   35 1
    60   34   63 1
    61   34   64 1
    62   35   36 1
    63   35   65 1
    64   35   66 1
    65   36   37 1
    66   36   67 1
    67   36   68 1
    68   37   42 1
    69   37   38 1
    70   37   69 1
    71   38   39 1
    72   38   70 1
    73   38   71 1
    74   39   40 1
    75   39   72 1
    76   39   73 1
    77   40   41 1
    78   40   74 1
    79   40   75 1
    80   41   42 1
    81   41   76 1
    82   41   77 1
    83   42   78 1
    84   42   79 1
    85   43   80 1
@<TRIPOS>MOLECULE
CHEMBL433042
   79    83     0     0     0
SMALL
USER_CHARGES

@<TRIPOS>ATOM
      1 C1         16.5492   14.4540   -8.6574 C.ar      1 <0>        -0.1639
      2 C2         16.6912   13.0749   -8.6888 C.ar      1 <0>        -0.0543
      3 C3         16.5398   12.3689   -7.5054 C.ar      1 <0>        -0.2005
      4 C4         16.2545   13.0582   -6.3417 C.ar      1 <0>         0.1175
      5 N1         16.1260   14.3704   -6.3493 N.ar      1 <0>        -0.4748
      6 C5         16.2636   15.0743   -7.4561 C.ar      1 <0>         0.1222
      7 C6         16.6841   10.8690   -7.4879 C.3       1 <0>         0.1415
      8 H1         17.3141   10.5548   -8.3201 H         1 <0>         0.1342
      9 C7         15.3039   10.2223   -7.6207 C.3       1 <0>        -0.0429
     10 N2         15.4445    8.7601   -7.6037 N.4       1 <0>        -0.5056
     11 C8         14.1193    8.1392   -7.7312 C.3       1 <0>        -0.0089
     12 C9         14.2657    6.6163   -7.7135 C.3       1 <0>        -0.0999
     13 C10        12.9062    5.9794   -7.8443 C.ar      1 <0>        -0.1178
     14 C11        12.1655    5.6957   -6.7116 C.ar      1 <0>        -0.0886
     15 C12        10.9193    5.1120   -6.8279 C.ar      1 <0>        -0.1244
     16 C13        10.4101    4.8099   -8.0845 C.ar      1 <0>         0.1626
     17 C14        11.1569    5.0962   -9.2203 C.ar      1 <0>        -0.1486
     18 C15        12.4000    5.6851   -9.0971 C.ar      1 <0>        -0.0827
     19 N3          9.1502    4.2191   -8.2057 N.pl3     1 <0>        -1.0583
     20 S1          8.0663    4.8004   -9.3146 S.o2      1 <0>         2.6878
     21 O1          8.7443    4.8406  -10.5628 O.2       1 <0>        -0.9397
     22 O2          6.8613    4.0715   -9.1253 O.2       1 <0>        -0.9346
     23 C16         7.7183    6.4712   -8.8765 C.ar      1 <0>        -0.6586
     24 C17         6.7503    6.7475   -7.9279 C.ar      1 <0>        -0.0159
     25 C18         6.4736    8.0545   -7.5810 C.ar      1 <0>        -0.0971
     26 C19         7.1715    9.0964   -8.1881 C.ar      1 <0>         0.0277
     27 C20         8.1456    8.8123   -9.1430 C.ar      1 <0>        -0.0890
     28 C21         8.4181    7.5015   -9.4783 C.ar      1 <0>        -0.0225
     29 C22         6.8780   10.5038   -7.8194 C.2       1 <0>         0.2804
     30 N4          7.4771   11.5915   -8.3363 N.2       1 <0>        -0.5385
     31 C23         6.9859   12.6702   -7.7963 C.2       1 <0>         0.3051
     32 O3          6.0490   12.3120   -6.9089 O.3       1 <0>        -0.0913
     33 N5          5.9882   10.8939   -6.9405 N.2       1 <0>        -0.3209
     34 C24         7.4021   14.0829   -8.1156 C.3       1 <0>        -0.0402
     35 C25         6.5402   14.6225   -9.2588 C.3       1 <0>        -0.1191
     36 C26         6.9628   16.0568   -9.5830 C.3       1 <0>        -0.1090
     37 C27         6.1009   16.5964  -10.7262 C.3       1 <0>        -0.0942
     38 C28         6.4249   15.8435  -12.0331 C.3       1 <0>        -0.1208
     39 C29         6.3346   16.9322  -13.1310 C.3       1 <0>        -0.1282
     40 C30         6.9411   18.1741  -12.4317 C.3       1 <0>        -0.1260
     41 C31         6.4291   18.0782  -10.9796 C.3       1 <0>        -0.1223
     42 O4         17.2841   10.4624   -6.2563 O.3       1 <0>        -0.5458
     43 H2         16.6648   15.0363   -9.5596 H         1 <0>         0.1473
     44 H3         16.9140   12.5630   -9.6133 H         1 <0>         0.1413
     45 H4         16.1351   12.5155   -5.4156 H         1 <0>         0.1525
     46 H5         16.1519   16.1480   -7.4231 H         1 <0>         0.1670
     47 H6         14.6739   10.5364   -6.7885 H         1 <0>         0.1372
     48 H7         14.8462   10.5324   -8.5601 H         1 <0>         0.1451
     49 H8         16.0277    8.4693   -8.3741 H         1 <0>         0.4302
     50 H9         13.4893    8.4533   -6.8991 H         1 <0>         0.1332
     51 H10        13.6616    8.4493   -8.6707 H         1 <0>         0.1350
     52 H11        14.8957    6.3022   -8.5457 H         1 <0>         0.0987
     53 H12        14.7234    6.3063   -6.7741 H         1 <0>         0.0977
     54 H13        12.5621    5.9305   -5.7349 H         1 <0>         0.1304
     55 H14        10.3414    4.8904   -5.9428 H         1 <0>         0.1361
     56 H15        10.7641    4.8622  -10.1987 H         1 <0>         0.1629
     57 H16        12.9792    5.9120   -9.9799 H         1 <0>         0.1338
     58 H17         8.9102    3.4683   -7.6404 H         1 <0>         0.4335
     59 H18         6.2096    5.9392   -7.4582 H         1 <0>         0.1520
     60 H19         5.7173    8.2691   -6.8405 H         1 <0>         0.1465
     61 H20         8.6892    9.6162   -9.6169 H         1 <0>         0.1493
     62 H21         9.1760    7.2800  -10.2151 H         1 <0>         0.1506
     63 H22         7.2690   14.7091   -7.2334 H         1 <0>         0.1088
     64 H23         8.4503   14.0941   -8.4144 H         1 <0>         0.1144
     65 H24         6.6733   13.9963  -10.1410 H         1 <0>         0.0763
     66 H25         5.4920   14.6113   -8.9601 H         1 <0>         0.0736
     67 H26         6.8297   16.6830   -8.7008 H         1 <0>         0.0691
     68 H27         8.0110   16.0680   -9.8817 H         1 <0>         0.0684
     69 H28         5.0446   16.4844  -10.4819 H         1 <0>         0.0732
     70 H29         7.4304   15.4247  -11.9929 H         1 <0>         0.0658
     71 H30         5.6905   15.0584  -12.2131 H         1 <0>         0.0628
     72 H31         6.9264   16.6521  -14.0024 H         1 <0>         0.0653
     73 H32         5.2967   17.1144  -13.4100 H         1 <0>         0.0671
     74 H33         8.0300   18.1317  -12.4559 H         1 <0>         0.0638
     75 H34         6.5834   19.0897  -12.9026 H         1 <0>         0.0651
     76 H35         5.5319   18.6853  -10.8592 H         1 <0>         0.0645
     77 H36         7.2024   18.4129  -10.2882 H         1 <0>         0.0650
     78 H37        16.7765   10.7094   -5.4712 H         1 <0>         0.3898
     79 H38        15.8681    8.4731   -6.7341 H         1 <0>         0.4327
@<TRIPOS>BOND
     1    1    6 ar
     2    1    2 ar
     3    1   43 1
     4    2    3 ar
     5    2   44 1
     6    3    4 ar
     7    3    7 1
     8    4    5 ar
     9    4   45 1
    10    5    6 ar
    11    6   46 1
    12    7    8 1
    13    7    9 1
    14    7   42 1
    15    9   10 1
    16    9   47 1
    17    9   48 1
    18   10   11 1
    19   10   49 1
    20   10   79 1
    21   11   12 1
    22   11   50 1
    23   11   51 1
    24   12   13 1
    25   12   52 1
    26   12   53 1
    27   13   18 ar
    28   13   14 ar
    29   14   15 ar
    30   14   54 1
    31   15   16 ar
    32   15   55 1
    33   16   17 ar
    34   16   19 1
    35   17   18 ar
    36   17   56 1
    37   18   57 1
    38   19   20 1
    39   19   58 1
    40   20   21 2
    41   20   22 2
    42   20   23 1
    43   23   28 ar
    44   23   24 ar
    45   24   25 ar
    46   24   59 1
    47   25   26 ar
    48   25   60 1
    49   26   27 ar
    50   26   29 1
    51   27   28 ar
    52   27   61 1
    53   28   62 1
    54   29   33 2
    55   29   30 1
    56   30   31 2
    57   31   32 1
    58   31   34 1
    59   32   33 1
    60   34   35 1
    61   34   63 1
    62   34   64 1
    63   35   36 1
    64   35   65 1
    65   35   66 1
    66   36   37 1
    67   36   67 1
    68   36   68 1
    69   37   41 1
    70   37   38 1
    71   37   69 1
    72   38   39 1
    73   38   70 1
    74   38   71 1
    75   39   40 1
    76   39   72 1
    77   39   73 1
    78   40   41 1
    79   40   74 1
    80   40   75 1
    81   41   76 1
    82   41   77 1
    83   42   78 1
@<TRIPOS>MOLECULE
CHEMBL433042
   78    82     0     0     0
SMALL
USER_CHARGES

@<TRIPOS>ATOM
      1 C1         -0.0167    1.3776    0.0096 C.ar      1 <0>        -0.1653
      2 C2          1.1849    2.0698    0.0019 C.ar      1 <0>        -0.0551
      3 C3          2.3651    1.3426   -0.0133 C.ar      1 <0>        -0.1953
      4 C4          2.3054   -0.0383   -0.0202 C.ar      1 <0>         0.1171
      5 N1          1.1443   -0.6632   -0.0129 N.ar      1 <0>        -0.4762
      6 C5          0.0021   -0.0041    0.0020 C.ar      1 <0>         0.1183
      7 C6          3.6964    2.0488   -0.0227 C.3       1 <0>         0.1403
      8 H1          3.5852    3.0397    0.4177 H         1 <0>         0.1328
      9 C7          4.1918    2.1840   -1.4640 C.3       1 <0>        -0.0426
     10 N2          5.4895    2.8724   -1.4731 N.4       1 <0>        -0.5054
     11 C8          5.9652    3.0022   -2.8569 C.3       1 <0>        -0.0113
     12 C9          7.3168    3.7191   -2.8665 C.3       1 <0>        -0.0713
     13 C10         7.8047    3.8523   -4.2861 C.ar      1 <0>        -0.2349
     14 C11         8.5838    2.8554   -4.8441 C.ar      1 <0>        -0.0637
     15 C12         9.0327    2.9742   -6.1447 C.ar      1 <0>        -0.1800
     16 C13         8.7007    4.0968   -6.8926 C.ar      1 <0>         0.2962
     17 C14         7.9179    5.0963   -6.3289 C.ar      1 <0>        -0.2646
     18 C15         7.4677    4.9685   -5.0296 C.ar      1 <0>        -0.0476
     19 N3          9.1534    4.2204   -8.2081 N.2       1 <0>        -1.0808
     20 S1          8.7565    5.5594   -9.0980 S.o2      1 <0>         2.6066
     21 O1          7.3500    5.5136   -9.2953 O.2       1 <0>        -1.0230
     22 O2          9.4036    6.6637   -8.4807 O.2       1 <0>        -1.0211
     23 C16         9.4944    5.3669  -10.6864 C.ar      1 <0>        -0.5955
     24 C17        10.7740    5.8403  -10.9136 C.ar      1 <0>        -0.0273
     25 C18        11.3569    5.6922  -12.1559 C.ar      1 <0>        -0.1000
     26 C19        10.6539    5.0644  -13.1820 C.ar      1 <0>        -0.0030
     27 C20         9.3652    4.5893  -12.9476 C.ar      1 <0>        -0.0885
     28 C21         8.7942    4.7378  -11.6998 C.ar      1 <0>        -0.0296
     29 C22        11.2753    4.9026  -14.5201 C.2       1 <0>         0.2972
     30 N4         10.6991    4.3218  -15.5877 N.2       1 <0>        -0.5335
     31 C23        11.5150    4.3452  -16.6027 C.2       1 <0>         0.2954
     32 O3         12.6501    4.9449  -16.2213 O.3       1 <0>        -0.1017
     33 N5         12.4744    5.3068  -14.8598 N.2       1 <0>        -0.3312
     34 C24        11.2301    3.7903  -17.9746 C.3       1 <0>        -0.0380
     35 C25        10.5946    4.8780  -18.8428 C.3       1 <0>        -0.1184
     36 C26        10.3053    4.3147  -20.2356 C.3       1 <0>        -0.1097
     37 C27         9.6698    5.4024  -21.1039 C.3       1 <0>        -0.0933
     38 C28         8.2608    5.7435  -20.5764 C.3       1 <0>        -0.1224
     39 C29         7.4279    6.0005  -21.8567 C.3       1 <0>        -0.1274
     40 C30         7.9749    4.9359  -22.8398 C.3       1 <0>        -0.1259
     41 C31         9.4880    4.8889  -22.5430 C.3       1 <0>        -0.1218
     42 O4          4.6418    1.2932    0.7371 O.3       1 <0>        -0.5469
     43 H2         -0.9552    1.9117    0.0259 H         1 <0>         0.1455
     44 H3          1.2009    3.1496    0.0072 H         1 <0>         0.1413
     45 H4          3.2203   -0.6121   -0.0320 H         1 <0>         0.1538
     46 H5         -0.9294   -0.5505    0.0083 H         1 <0>         0.1651
     47 H6          4.3030    1.1932   -1.9044 H         1 <0>         0.1361
     48 H7          3.4707    2.7604   -2.0435 H         1 <0>         0.1429
     49 H8          5.3866    3.7896   -1.0655 H         1 <0>         0.4264
     50 H9          6.0764    2.0113   -3.2973 H         1 <0>         0.1308
     51 H10         5.2440    3.5785   -3.4365 H         1 <0>         0.1305
     52 H11         7.2056    4.7100   -2.4261 H         1 <0>         0.0797
     53 H12         8.0379    3.1428   -2.2869 H         1 <0>         0.0810
     54 H13         8.8419    1.9830   -4.2620 H         1 <0>         0.1049
     55 H14         9.6415    2.1954   -6.5798 H         1 <0>         0.1172
     56 H15         7.6583    5.9706   -6.9075 H         1 <0>         0.1016
     57 H16         6.8554    5.7432   -4.5922 H         1 <0>         0.1020
     58 H17        11.3180    6.3271  -10.1177 H         1 <0>         0.1469
     59 H18        12.3559    6.0625  -12.3324 H         1 <0>         0.1379
     60 H19         8.8158    4.1023  -13.7395 H         1 <0>         0.1444
     61 H20         7.7970    4.3660  -11.5157 H         1 <0>         0.1467
     62 H21        12.1616    3.4578  -18.4327 H         1 <0>         0.1057
     63 H22        10.5453    2.9465  -17.8902 H         1 <0>         0.1150
     64 H23         9.6631    5.2105  -18.3847 H         1 <0>         0.0766
     65 H24        11.2794    5.7218  -18.9272 H         1 <0>         0.0714
     66 H25        11.2369    3.9822  -20.6937 H         1 <0>         0.0678
     67 H26         9.6205    3.4709  -20.1512 H         1 <0>         0.0696
     68 H27        10.2961    6.2945  -21.1021 H         1 <0>         0.0720
     69 H28         7.8497    4.9039  -20.0159 H         1 <0>         0.0685
     70 H29         8.2923    6.6389  -19.9557 H         1 <0>         0.0634
     71 H30         6.3667    5.8408  -21.6657 H         1 <0>         0.0649
     72 H31         7.6058    7.0060  -22.2380 H         1 <0>         0.0652
     73 H32         7.5176    3.9658  -22.6448 H         1 <0>         0.0646
     74 H33         7.7977    5.2419  -23.8708 H         1 <0>         0.0629
     75 H34        10.0253    5.5323  -23.2397 H         1 <0>         0.0624
     76 H35         9.8525    3.8647  -22.6228 H         1 <0>         0.0652
     77 H36         4.7910    0.3986    0.4015 H         1 <0>         0.3893
     78 H37         6.1570    2.3389   -0.9367 H         1 <0>         0.4292
@<TRIPOS>BOND
     1    1    6 ar
     2    1    2 ar
     3    1   43 1
     4    2    3 ar
     5    2   44 1
     6    3    4 ar
     7    3    7 1
     8    4    5 ar
     9    4   45 1
    10    5    6 ar
    11    6   46 1
    12    7    8 1
    13    7    9 1
    14    7   42 1
    15    9   10 1
    16    9   47 1
    17    9   48 1
    18   10   11 1
    19   10   49 1
    20   10   78 1
    21   11   12 1
    22   11   50 1
    23   11   51 1
    24   12   13 1
    25   12   52 1
    26   12   53 1
    27   13   18 ar
    28   13   14 ar
    29   14   15 ar
    30   14   54 1
    31   15   16 ar
    32   15   55 1
    33   16   17 ar
    34   16   19 1
    35   17   18 ar
    36   17   56 1
    37   18   57 1
    38   19   20 1
    39   20   21 2
    40   20   22 2
    41   20   23 1
    42   23   28 ar
    43   23   24 ar
    44   24   25 ar
    45   24   58 1
    46   25   26 ar
    47   25   59 1
    48   26   27 ar
    49   26   29 1
    50   27   28 ar
    51   27   60 1
    52   28   61 1
    53   29   33 2
    54   29   30 1
    55   30   31 2
    56   31   32 1
    57   31   34 1
    58   32   33 1
    59   34   35 1
    60   34   62 1
    61   34   63 1
    62   35   36 1
    63   35   64 1
    64   35   65 1
    65   36   37 1
    66   36   66 1
    67   36   67 1
    68   37   41 1
    69   37   38 1
    70   37   68 1
    71   38   39 1
    72   38   69 1
    73   38   70 1
    74   39   40 1
    75   39   71 1
    76   39   72 1
    77   40   41 1
    78   40   73 1
    79   40   74 1
    80   41   75 1
    81   41   76 1
    82   42   77 1
@<TRIPOS>MOLECULE
CHEMBL72
   43    45     0     0     0
SMALL
USER_CHARGES

@<TRIPOS>ATOM
      1 C1         -5.6811    1.3607   -0.3895 C.3       1 <0>        -0.0475
      2 N1         -5.6577   -0.0983   -0.2206 N.4       1 <0>        -0.5096
      3 C2         -4.2653   -0.5656   -0.1914 C.3       1 <0>        -0.0084
      4 C3         -4.2409   -2.0853   -0.0155 C.3       1 <0>        -0.1794
      5 C4         -2.7907   -2.5720    0.0149 C.3       1 <0>         0.1486
      6 N2         -2.7680   -4.0325    0.1272 N.pl3     1 <0>        -0.6107
      7 C5         -2.6913   -4.8424   -1.0108 C.ar      1 <0>         0.1751
      8 C6         -1.6220   -4.6466   -1.8788 C.ar      1 <0>        -0.1410
      9 C7         -1.4736   -5.4397   -2.9971 C.ar      1 <0>        -0.1023
     10 C8         -2.4002   -6.4363   -3.2444 C.ar      1 <0>        -0.1264
     11 C9         -3.4655   -6.6206   -2.3933 C.ar      1 <0>        -0.1102
     12 C10        -3.6460   -5.8156   -1.2664 C.ar      1 <0>        -0.0995
     13 C11        -4.9119   -6.0915   -0.4880 C.3       1 <0>        -0.0689
     14 C12        -5.1138   -5.1475    0.6844 C.3       1 <0>        -0.0774
     15 C13        -4.0023   -5.2798    1.6948 C.ar      1 <0>        -0.0996
     16 C14        -2.8165   -4.6605    1.3756 C.ar      1 <0>         0.1518
     17 C15        -1.7436   -4.6795    2.2507 C.ar      1 <0>        -0.1184
     18 C16        -1.8773   -5.3599    3.4502 C.ar      1 <0>        -0.1095
     19 C17        -3.0597   -6.0065    3.7610 C.ar      1 <0>        -0.1164
     20 C18        -4.1454   -5.9689    2.8764 C.ar      1 <0>        -0.1028
     21 H1         -6.7143    1.7075   -0.4111 H         1 <0>         0.1266
     22 H2         -5.1573    1.8313    0.4426 H         1 <0>         0.1238
     23 H3         -5.1891    1.6261   -1.3252 H         1 <0>         0.1238
     24 H4         -6.1131   -0.3440    0.6456 H         1 <0>         0.4303
     25 H5         -3.7733   -0.3002   -1.1272 H         1 <0>         0.1329
     26 H6         -3.7415   -0.0951    0.6406 H         1 <0>         0.1330
     27 H7         -4.7329   -2.3506    0.9203 H         1 <0>         0.0915
     28 H8         -4.7647   -2.5558   -0.8475 H         1 <0>         0.0913
     29 H9         -2.2869   -2.2703   -0.9034 H         1 <0>         0.0828
     30 H10        -2.2782   -2.1337    0.8713 H         1 <0>         0.0803
     31 H11        -0.9026   -3.8672   -1.6754 H         1 <0>         0.1215
     32 H12        -0.6444   -5.2844   -3.6715 H         1 <0>         0.1277
     33 H13        -2.2869   -7.0730   -4.1093 H         1 <0>         0.1251
     34 H14        -4.1781   -7.4050   -2.6015 H         1 <0>         0.1223
     35 H15        -5.7638   -5.9997   -1.1617 H         1 <0>         0.0796
     36 H16        -4.8754   -7.1138   -0.1117 H         1 <0>         0.0764
     37 H17        -5.1407   -4.1220    0.3160 H         1 <0>         0.0728
     38 H18        -6.0638   -5.3767    1.1673 H         1 <0>         0.0709
     39 H19        -0.8216   -4.1746    2.0032 H         1 <0>         0.1257
     40 H20        -1.0526   -5.3858    4.1470 H         1 <0>         0.1276
     41 H21        -3.1479   -6.5447    4.6932 H         1 <0>         0.1270
     42 H22        -5.0720   -6.4709    3.1123 H         1 <0>         0.1291
     43 H23        -6.1426   -0.5339   -0.9908 H         1 <0>         0.4303
@<TRIPOS>BOND
     1    1    2 1
     2    1   21 1
     3    1   22 1
     4    1   23 1
     5    2    3 1
     6    2   24 1
     7    2   43 1
     8    3    4 1
     9    3   25 1
    10    3   26 1
    11    4    5 1
    12    4   27 1
    13    4   28 1
    14    5    6 1
    15    5   29 1
    16    5   30 1
    17    6   16 1
    18    6    7 1
    19    7   12 ar
    20    7    8 ar
    21    8    9 ar
    22    8   31 1
    23    9   10 ar
    24    9   32 1
    25   10   11 ar
    26   10   33 1
    27   11   12 ar
    28   11   34 1
    29   12   13 1
    30   13   14 1
    31   13   35 1
    32   13   36 1
    33   14   15 1
    34   14   37 1
    35   14   38 1
    36   15   20 ar
    37   15   16 ar
    38   16   17 ar
    39   17   18 ar
    40   17   39 1
    41   18   19 ar
    42   18   40 1
    43   19   20 ar
    44   19   41 1
    45   20   42 1
@<TRIPOS>MOLECULE
CHEMBL363260
   60    62     0     0     0
SMALL
USER_CHARGES

@<TRIPOS>ATOM
      1 C1         -0.1347    1.4083    0.0818 C.ar      1 <0>        -0.1162
      2 C2          1.0508    2.1192    0.0684 C.ar      1 <0>        -0.1167
      3 C3          2.2590    1.4479    0.0424 C.ar      1 <0>        -0.1133
      4 C4          2.2817    0.0658    0.0302 C.ar      1 <0>        -0.0917
      5 C5          1.0962   -0.6450    0.0445 C.ar      1 <0>        -0.1139
      6 C6         -0.1120    0.0262    0.0691 C.ar      1 <0>        -0.1174
      7 C7          3.5987   -0.6660    0.0008 C.3       1 <0>        -0.0783
      8 C8          4.0698   -0.9259    1.4331 C.3       1 <0>         0.0646
      9 O1          5.3187   -1.6198    1.4052 O.3       1 <0>        -0.3103
     10 C9          5.8792   -1.9297    2.6038 C.ar      1 <0>         0.1519
     11 C10         5.2375   -1.5783    3.7826 C.ar      1 <0>        -0.2073
     12 C11         5.8091   -1.8949    4.9997 C.ar      1 <0>        -0.0652
     13 C12         7.0199   -2.5610    5.0438 C.ar      1 <0>        -0.1518
     14 C13         7.6617   -2.9119    3.8705 C.ar      1 <0>        -0.0667
     15 C14         7.0913   -2.6030    2.6508 C.ar      1 <0>        -0.1498
     16 C15         7.6414   -2.9047    6.3730 C.3       1 <0>        -0.0941
     17 C16         7.1566   -4.2849    6.8210 C.3       1 <0>        -0.0077
     18 N1          7.7624   -4.6199    8.1167 N.4       1 <0>        -0.5058
     19 C17         7.2969   -5.9451    8.5469 C.3       1 <0>        -0.0420
     20 C18         7.9279   -6.2940    9.8963 C.3       1 <0>         0.1374
     21 H1          7.6373   -5.5488   10.6368 H         1 <0>         0.1336
     22 C19         7.4503   -7.6535   10.3377 C.ar      1 <0>        -0.1343
     23 C20         8.1008   -8.7904    9.8946 C.ar      1 <0>        -0.1040
     24 C21         7.6671  -10.0402   10.2956 C.ar      1 <0>        -0.1193
     25 C22         6.5777  -10.1565   11.1439 C.ar      1 <0>         0.1019
     26 C23         5.9222   -9.0117   11.5910 C.ar      1 <0>         0.1237
     27 C24         6.3668   -7.7606   11.1887 C.ar      1 <0>        -0.0918
     28 N2          4.8200   -9.1231   12.4490 N.am      1 <0>        -0.6780
     29 C25         4.6135   -8.1956   13.4048 C.2       1 <0>         0.4954
     30 O2          5.3342   -7.2223   13.4711 O.2       1 <0>        -0.5354
     31 O3          6.1493  -11.3852   11.5385 O.3       1 <0>        -0.4925
     32 O4          9.3510   -6.3078    9.7674 O.3       1 <0>        -0.5463
     33 H2         -1.0785    1.9327    0.1067 H         1 <0>         0.1250
     34 H3          1.0331    3.1990    0.0779 H         1 <0>         0.1255
     35 H4          3.1852    2.0033    0.0312 H         1 <0>         0.1232
     36 H5          1.1139   -1.7249    0.0346 H         1 <0>         0.1225
     37 H6         -1.0382   -0.5292    0.0799 H         1 <0>         0.1251
     38 H7          3.4750   -1.6160   -0.5191 H         1 <0>         0.0861
     39 H8          4.3395   -0.0600   -0.5210 H         1 <0>         0.0866
     40 H9          4.1935    0.0241    1.9529 H         1 <0>         0.0676
     41 H10         3.3291   -1.5318    1.9549 H         1 <0>         0.0668
     42 H11         4.2920   -1.0574    3.7486 H         1 <0>         0.1337
     43 H12         5.3099   -1.6216    5.9176 H         1 <0>         0.1267
     44 H13         8.6076   -3.4318    3.9075 H         1 <0>         0.1315
     45 H14         7.5908   -2.8812    1.7345 H         1 <0>         0.1378
     46 H15         8.7269   -2.9152    6.2746 H         1 <0>         0.0954
     47 H16         7.3509   -2.1595    7.1135 H         1 <0>         0.0944
     48 H17         6.0710   -4.2744    6.9194 H         1 <0>         0.1324
     49 H18         7.4471   -5.0301    6.0805 H         1 <0>         0.1330
     50 H19         8.7672   -4.6296    8.0256 H         1 <0>         0.4319
     51 H20         6.2114   -5.9346    8.6452 H         1 <0>         0.1439
     52 H21         7.5874   -6.6903    7.8064 H         1 <0>         0.1377
     53 H22         8.9499   -8.7017    9.2331 H         1 <0>         0.1289
     54 H23         8.1772  -10.9262    9.9474 H         1 <0>         0.1423
     55 H24         5.8635   -6.8708   11.5370 H         1 <0>         0.1485
     56 H25         4.2056   -9.8678   12.3550 H         1 <0>         0.4225
     57 H26         3.8064   -8.3190   14.1117 H         1 <0>         0.1548
     58 H27         6.5653  -11.7045   12.3510 H         1 <0>         0.3999
     59 H28         9.6814   -6.9492    9.1235 H         1 <0>         0.3877
     60 H29         7.4934   -3.9301    8.8021 H         1 <0>         0.4296
@<TRIPOS>BOND
     1    1    6 ar
     2    1    2 ar
     3    1   33 1
     4    2    3 ar
     5    2   34 1
     6    3    4 ar
     7    3   35 1
     8    4    5 ar
     9    4    7 1
    10    5    6 ar
    11    5   36 1
    12    6   37 1
    13    7    8 1
    14    7   38 1
    15    7   39 1
    16    8    9 1
    17    8   40 1
    18    8   41 1
    19    9   10 1
    20   10   15 ar
    21   10   11 ar
    22   11   12 ar
    23   11   42 1
    24   12   13 ar
    25   12   43 1
    26   13   14 ar
    27   13   16 1
    28   14   15 ar
    29   14   44 1
    30   15   45 1
    31   16   17 1
    32   16   46 1
    33   16   47 1
    34   17   18 1
    35   17   48 1
    36   17   49 1
    37   18   19 1
    38   18   50 1
    39   18   60 1
    40   19   20 1
    41   19   51 1
    42   19   52 1
    43   20   21 1
    44   20   22 1
    45   20   32 1
    46   22   27 ar
    47   22   23 ar
    48   23   24 ar
    49   23   53 1
    50   24   25 ar
    51   24   54 1
    52   25   26 ar
    53   25   31 1
    54   26   27 ar
    55   26   28 1
    56   27   55 1
    57   28   29 am
    58   28   56 1
    59   29   30 2
    60   29   57 1
    61   31   58 1
    62   32   59 1
@<TRIPOS>MOLECULE
CHEMBL1221802
   65    68     0     0     0
SMALL
USER_CHARGES

@<TRIPOS>ATOM
      1 C1          0.1870    1.1495   -0.0666 C.ar      1 <0>        -0.0380
      2 C2          1.4267    1.7656   -0.0842 C.ar      1 <0>        -0.2395
      3 C3          2.5911    1.0279   -0.0629 C.ar      1 <0>         0.3008
      4 C4          2.5524   -0.3802   -0.0220 C.ar      1 <0>        -0.0265
      5 C5          1.2816   -0.9693   -0.0047 C.ar      1 <0>        -0.0479
      6 C6          0.1212   -0.2321   -0.0264 C.ar      1 <0>        -0.2389
      7 C7         -1.2165   -0.9257   -0.0061 C.3       1 <0>         0.1646
      8 H1         -1.1514   -1.8228    0.6097 H         1 <0>         0.1158
      9 C8         -1.6116   -1.3137   -1.4324 C.3       1 <0>        -0.0483
     10 N1         -2.9156   -1.9899   -1.4126 N.4       1 <0>        -0.5024
     11 C9         -3.2948   -2.3624   -2.7820 C.3       1 <0>         0.0220
     12 C10        -3.5160   -1.0963   -3.6141 C.3       1 <0>        -0.1405
     13 C11        -3.9698   -1.4896   -5.0217 C.3       1 <0>         0.0584
     14 N2         -5.2139   -2.2651   -4.9376 N.3       1 <0>        -0.5328
     15 C12        -5.0141   -3.5090   -4.1831 C.3       1 <0>         0.0486
     16 C13        -4.5916   -3.1760   -2.7504 C.3       1 <0>        -0.1395
     17 C14        -5.7533   -2.5419   -6.2756 C.3       1 <0>         0.0267
     18 C15        -7.1615   -3.1261   -6.1470 C.3       1 <0>        -0.0171
     19 N3         -7.7514   -3.2807   -7.4834 N.4       1 <0>        -0.3635
     20 C16        -9.1813   -3.6141   -7.3339 C.3       1 <0>        -0.0021
     21 C17        -9.9007   -3.1879   -8.5891 C.3       1 <0>        -0.1498
     22 C18       -10.0583   -4.3612   -9.5742 C.3       1 <0>        -0.1321
     23 C19        -8.7861   -5.2304   -9.6371 C.3       1 <0>        -0.1397
     24 C20        -7.5254   -4.4042   -9.6353 C.3       1 <0>        -0.1352
     25 C21        -7.0277   -4.2478   -8.1832 C.3       1 <0>        -0.0384
     26 O1         -2.2015   -0.0450    0.5381 O.3       1 <0>        -0.5538
     27 S1          1.6421   -2.7082    0.0464 S.3       1 <0>        -0.1251
     28 C22         3.4235   -2.5892    0.0430 C.2       1 <0>         0.5394
     29 O2          4.2473   -3.4850    0.0693 O.2       1 <0>        -0.4721
     30 N4          3.6259   -1.2576    0.0038 N.am      1 <0>        -0.6199
     31 H2          4.5312   -0.9094   -0.0064 H         1 <0>         0.4169
     32 O3          3.7914    1.6666   -0.0821 O.3       1 <0>        -0.6803
     33 H3         -0.7172    1.7399   -0.0795 H         1 <0>         0.1122
     34 H4          1.4826    2.8437   -0.1155 H         1 <0>         0.1182
     35 H5         -1.6767   -0.4167   -2.0481 H         1 <0>         0.1363
     36 H6         -0.8602   -1.9855   -1.8474 H         1 <0>         0.1408
     37 H7         -2.8552   -2.8203   -0.8426 H         1 <0>         0.4291
     38 H8         -2.5008   -2.9598   -3.2301 H         1 <0>         0.1372
     39 H9         -4.2826   -0.4808   -3.1434 H         1 <0>         0.1002
     40 H10        -2.5843   -0.5340   -3.6759 H         1 <0>         0.1033
     41 H11        -4.1419   -0.5899   -5.6125 H         1 <0>         0.1018
     42 H12        -3.1968   -2.0935   -5.4970 H         1 <0>         0.0558
     43 H13        -5.9449   -4.0761   -4.1647 H         1 <0>         0.0936
     44 H14        -4.2363   -4.1035   -4.6623 H         1 <0>         0.0558
     45 H15        -4.4283   -4.0996   -2.1951 H         1 <0>         0.0995
     46 H16        -5.3751   -2.5932   -2.2661 H         1 <0>         0.0994
     47 H17        -5.7951   -1.6159   -6.8491 H         1 <0>         0.1028
     48 H18        -5.1085   -3.2569   -6.7866 H         1 <0>         0.0649
     49 H19        -7.1079   -4.0992   -5.6587 H         1 <0>         0.1293
     50 H20        -7.7805   -2.4547   -5.5520 H         1 <0>         0.1437
     51 H21        -9.2952   -4.6888   -7.1922 H         1 <0>         0.1334
     52 H22        -9.5944   -3.0840   -6.4757 H         1 <0>         0.1353
     53 H23       -10.8882   -2.8107   -8.3232 H         1 <0>         0.1099
     54 H24        -9.3342   -2.3912   -9.0714 H         1 <0>         0.0823
     55 H25       -10.8968   -4.9812   -9.2570 H         1 <0>         0.0812
     56 H26       -10.2672   -3.9650  -10.5680 H         1 <0>         0.0829
     57 H27        -8.7718   -5.8981   -8.7757 H         1 <0>         0.0686
     58 H28        -8.8134   -5.8308  -10.5464 H         1 <0>         0.0877
     59 H29        -6.7612   -4.9037  -10.2308 H         1 <0>         0.1097
     60 H30        -7.7332   -3.4209  -10.0573 H         1 <0>         0.0884
     61 H31        -5.9760   -3.9618   -8.1978 H         1 <0>         0.1284
     62 H32        -7.1262   -5.2044   -7.6699 H         1 <0>         0.1271
     63 H33        -2.3134    0.7761    0.0396 H         1 <0>         0.3831
     64 H34        -7.6753   -2.4020   -7.9736 H         1 <0>         0.4198
     65 H35        -3.6111   -1.3680   -1.0283 H         1 <0>         0.4286
@<TRIPOS>BOND
     1    1    6 ar
     2    1    2 ar
     3    1   33 1
     4    2    3 ar
     5    2   34 1
     6    3    4 ar
     7    3   32 1
     8    4   30 1
     9    4    5 ar
    10    5    6 ar
    11    5   27 1
    12    6    7 1
    13    7    8 1
    14    7    9 1
    15    7   26 1
    16    9   10 1
    17    9   35 1
    18    9   36 1
    19   10   11 1
    20   10   37 1
    21   10   65 1
    22   11   16 1
    23   11   12 1
    24   11   38 1
    25   12   13 1
    26   12   39 1
    27   12   40 1
    28   13   14 1
    29   13   41 1
    30   13   42 1
    31   14   15 1
    32   14   17 1
    33   15   16 1
    34   15   43 1
    35   15   44 1
    36   16   45 1
    37   16   46 1
    38   17   18 1
    39   17   47 1
    40   17   48 1
    41   18   19 1
    42   18   49 1
    43   18   50 1
    44   19   25 1
    45   19   20 1
    46   19   64 1
    47   20   21 1
    48   20   51 1
    49   20   52 1
    50   21   22 1
    51   21   53 1
    52   21   54 1
    53   22   23 1
    54   22   55 1
    55   22   56 1
    56   23   24 1
    57   23   57 1
    58   23   58 1
    59   24   25 1
    60   24   59 1
    61   24   60 1
    62   25   61 1
    63   25   62 1
    64   26   63 1
    65   27   28 1
    66   28   29 2
    67   28   30 am
    68   30   31 1
@<TRIPOS>MOLECULE
CHEMBL1221801
   57    60     0     0     0
SMALL
USER_CHARGES

@<TRIPOS>ATOM
      1 C1         -0.0167    1.3796    0.0096 C.ar      1 <0>        -0.0378
      2 C2          1.1829    2.0705    0.0019 C.ar      1 <0>        -0.2400
      3 C3          2.3903    1.4051   -0.0137 C.ar      1 <0>         0.3004
      4 C4          2.4377   -0.0032   -0.0217 C.ar      1 <0>        -0.0286
      5 C5          1.2054   -0.6693   -0.0130 C.ar      1 <0>        -0.0474
      6 C6          0.0021   -0.0041    0.0020 C.ar      1 <0>        -0.2321
      7 C7         -1.2907   -0.7785    0.0107 C.3       1 <0>         0.1632
      8 H1         -1.1640   -1.6905    0.5940 H         1 <0>         0.1145
      9 C8         -1.6778   -1.1407   -1.4245 C.3       1 <0>        -0.0499
     10 N1         -2.9380   -1.8956   -1.4160 N.4       1 <0>        -0.5051
     11 C9         -3.3097   -2.2434   -2.7940 C.3       1 <0>         0.0283
     12 C10        -3.6090   -0.9651   -3.5796 C.3       1 <0>        -0.1428
     13 C11        -4.7646   -0.2157   -2.9133 C.3       1 <0>        -0.1359
     14 C12        -6.0081   -1.1069   -2.8966 C.3       1 <0>        -0.1287
     15 C13        -5.7089   -2.3853   -2.1110 C.3       1 <0>        -0.1323
     16 C14        -4.5533   -3.1346   -2.7773 C.3       1 <0>        -0.1014
     17 C15        -4.2540   -4.4130   -1.9917 C.3       1 <0>        -0.0967
     18 C16        -5.4975   -5.3042   -1.9750 C.3       1 <0>        -0.1126
     19 C17        -5.1983   -6.5826   -1.1894 C.3       1 <0>        -0.1229
     20 C18        -4.0427   -7.3319   -1.8557 C.3       1 <0>        -0.1235
     21 C19        -2.7992   -6.4407   -1.8724 C.3       1 <0>        -0.1228
     22 C20        -3.0984   -5.1623   -2.6580 C.3       1 <0>        -0.1240
     23 O1         -2.3211    0.0211    0.5946 O.3       1 <0>        -0.5544
     24 S1          1.6714   -2.3835   -0.0263 S.3       1 <0>        -0.1189
     25 C21         3.4422   -2.1558   -0.0424 C.2       1 <0>         0.5375
     26 O2          4.3192   -2.9998   -0.0552 O.2       1 <0>        -0.4761
     27 N2          3.5628   -0.8137   -0.0368 N.am      1 <0>        -0.6197
     28 H2          4.4451   -0.4107   -0.0434 H         1 <0>         0.4153
     29 O3          3.5491    2.1163   -0.0218 O.3       1 <0>        -0.6868
     30 H3         -0.9553    1.9136    0.0259 H         1 <0>         0.1126
     31 H4          1.1728    3.1505    0.0078 H         1 <0>         0.1172
     32 H5         -1.8046   -0.2287   -2.0078 H         1 <0>         0.1374
     33 H6         -0.8919   -1.7507   -1.8699 H         1 <0>         0.1406
     34 H7         -2.8207   -2.7399   -0.8761 H         1 <0>         0.4223
     35 H8         -2.4865   -2.7773   -3.2687 H         1 <0>         0.1409
     36 H9         -2.7231   -0.3301   -3.5915 H         1 <0>         0.0913
     37 H10        -3.8848   -1.2231   -4.6021 H         1 <0>         0.1087
     38 H11        -4.4888    0.0423   -1.8909 H         1 <0>         0.0599
     39 H12        -4.9778    0.6950   -3.4730 H         1 <0>         0.0902
     40 H13        -6.8314   -0.5731   -2.4219 H         1 <0>         0.0782
     41 H14        -6.2839   -1.3650   -3.9191 H         1 <0>         0.0764
     42 H15        -5.4330   -2.1272   -1.0885 H         1 <0>         0.0596
     43 H16        -6.5948   -3.0202   -2.0991 H         1 <0>         0.0921
     44 H17        -4.8291   -3.3927   -3.7998 H         1 <0>         0.1165
     45 H18        -3.9782   -4.1549   -0.9692 H         1 <0>         0.0657
     46 H19        -6.3208   -4.7704   -1.5003 H         1 <0>         0.0694
     47 H20        -5.7734   -5.5623   -2.9975 H         1 <0>         0.0695
     48 H21        -4.9225   -6.3245   -0.1669 H         1 <0>         0.0631
     49 H22        -6.0842   -7.2175   -1.1775 H         1 <0>         0.0669
     50 H23        -3.8295   -8.2426   -1.2960 H         1 <0>         0.0656
     51 H24        -4.3185   -7.5900   -2.8782 H         1 <0>         0.0635
     52 H25        -2.5234   -6.1826   -0.8499 H         1 <0>         0.0641
     53 H26        -1.9759   -6.9746   -2.3471 H         1 <0>         0.0691
     54 H27        -3.3742   -5.4204   -3.6805 H         1 <0>         0.0744
     55 H28        -2.2125   -4.5274   -2.6699 H         1 <0>         0.0595
     56 H29        -2.4884    0.8504    0.1263 H         1 <0>         0.3827
     57 H30        -3.6655   -1.3310   -1.0037 H         1 <0>         0.4238
@<TRIPOS>BOND
     1    1    6 ar
     2    1    2 ar
     3    1   30 1
     4    2    3 ar
     5    2   31 1
     6    3    4 ar
     7    3   29 1
     8    4   27 1
     9    4    5 ar
    10    5    6 ar
    11    5   24 1
    12    6    7 1
    13    7    8 1
    14    7    9 1
    15    7   23 1
    16    9   10 1
    17    9   32 1
    18    9   33 1
    19   10   11 1
    20   10   34 1
    21   10   57 1
    22   11   16 1
    23   11   12 1
    24   11   35 1
    25   12   13 1
    26   12   36 1
    27   12   37 1
    28   13   14 1
    29   13   38 1
    30   13   39 1
    31   14   15 1
    32   14   40 1
    33   14   41 1
    34   15   16 1
    35   15   42 1
    36   15   43 1
    37   16   17 1
    38   16   44 1
    39   17   22 1
    40   17   18 1
    41   17   45 1
    42   18   19 1
    43   18   46 1
    44   18   47 1
    45   19   20 1
    46   19   48 1
    47   19   49 1
    48   20   21 1
    49   20   50 1
    50   20   51 1
    51   21   22 1
    52   21   52 1
    53   21   53 1
    54   22   54 1
    55   22   55 1
    56   23   56 1
    57   24   25 1
    58   25   26 2
    59   25   27 am
    60   27   28 1
@<TRIPOS>MOLECULE
CHEMBL1221801
   57    60     0     0     0
SMALL
USER_CHARGES

@<TRIPOS>ATOM
      1 C1         -1.0707    1.7200    0.7794 C.ar      1 <0>        -0.0378
      2 C2         -0.0016    2.5816    0.9563 C.ar      1 <0>        -0.2402
      3 C3          1.2887    2.1070    1.0594 C.ar      1 <0>         0.3003
      4 C4          1.5570    0.7255    0.9876 C.ar      1 <0>        -0.0286
      5 C5          0.4519   -0.1165    0.8087 C.ar      1 <0>        -0.0475
      6 C6         -0.8344    0.3586    0.7057 C.ar      1 <0>        -0.2327
      7 C7         -1.9818   -0.5994    0.5138 C.3       1 <0>         0.1634
      8 H1         -1.7823   -1.5198    1.0625 H         1 <0>         0.1143
      9 C8         -2.1378   -0.9167   -0.9748 C.3       1 <0>        -0.0484
     10 N1         -3.2563   -1.8504   -1.1618 N.4       1 <0>        -0.5045
     11 C9         -3.4061   -2.1551   -2.5910 C.3       1 <0>         0.0249
     12 C10        -3.8254   -0.8892   -3.3411 C.3       1 <0>        -0.1396
     13 C11        -3.9815   -1.2065   -4.8297 C.3       1 <0>        -0.1166
     14 C12        -5.0512   -2.2851   -5.0118 C.3       1 <0>        -0.1289
     15 C13        -4.6318   -3.5510   -4.2618 C.3       1 <0>        -0.1145
     16 C14        -4.4758   -3.2337   -2.7732 C.3       1 <0>        -0.0997
     17 C15        -4.0565   -4.4996   -2.0231 C.3       1 <0>        -0.0959
     18 C16        -2.7841   -5.0685   -2.6543 C.3       1 <0>        -0.1250
     19 C17        -2.3648   -6.3344   -1.9042 C.3       1 <0>        -0.1230
     20 C18        -3.4851   -7.3729   -1.9903 C.3       1 <0>        -0.1232
     21 C19        -4.7575   -6.8040   -1.3591 C.3       1 <0>        -0.1227
     22 C20        -5.1768   -5.5381   -2.1092 C.3       1 <0>        -0.1127
     23 O1         -3.1856   -0.0047    1.0028 O.3       1 <0>        -0.5543
     24 S1          1.1793   -1.7367    0.7691 S.3       1 <0>        -0.1193
     25 C21         2.8822   -1.2460    0.9865 C.2       1 <0>         0.5376
     26 O2          3.8761   -1.9465    1.0419 O.2       1 <0>        -0.4760
     27 N2          2.7893    0.0954    1.0736 N.am      1 <0>        -0.6197
     28 H2          3.5922    0.6255    1.1977 H         1 <0>         0.4154
     29 O3          2.3147    2.9825    1.2318 O.3       1 <0>        -0.6867
     30 H3         -2.0768    2.1053    0.7043 H         1 <0>         0.1128
     31 H4         -0.1816    3.6449    1.0144 H         1 <0>         0.1172
     32 H5         -2.3373    0.0038   -1.5235 H         1 <0>         0.1373
     33 H6         -1.2196   -1.3703   -1.3478 H         1 <0>         0.1395
     34 H7         -3.0717   -2.7025   -0.6539 H         1 <0>         0.4231
     35 H8         -2.4565   -2.5145   -2.9874 H         1 <0>         0.1393
     36 H9         -4.7751   -0.5298   -2.9447 H         1 <0>         0.0862
     37 H10        -3.0634   -0.1207   -3.2113 H         1 <0>         0.0895
     38 H11        -4.2802   -0.3046   -5.3640 H         1 <0>         0.0824
     39 H12        -3.0318   -1.5659   -5.2260 H         1 <0>         0.0736
     40 H13        -6.0008   -1.9257   -4.6155 H         1 <0>         0.0686
     41 H14        -5.1623   -2.5112   -6.0723 H         1 <0>         0.0759
     42 H15        -5.3939   -4.3195   -4.3915 H         1 <0>         0.0841
     43 H16        -3.6822   -3.9105   -4.6581 H         1 <0>         0.0778
     44 H17        -5.4254   -2.8743   -2.3768 H         1 <0>         0.0948
     45 H18        -3.8661   -4.2563   -0.9778 H         1 <0>         0.0643
     46 H19        -2.9745   -5.3118   -3.6996 H         1 <0>         0.0777
     47 H20        -1.9860   -4.3287   -2.5930 H         1 <0>         0.0597
     48 H21        -1.4584   -6.7397   -2.3539 H         1 <0>         0.0684
     49 H22        -2.1744   -6.0911   -0.8589 H         1 <0>         0.0636
     50 H23        -3.6755   -7.6162   -3.0356 H         1 <0>         0.0633
     51 H24        -3.1864   -8.2748   -1.4559 H         1 <0>         0.0654
     52 H25        -5.5556   -7.5438   -1.4204 H         1 <0>         0.0668
     53 H26        -4.5671   -6.5607   -0.3138 H         1 <0>         0.0629
     54 H27        -6.0832   -5.1328   -1.6595 H         1 <0>         0.0659
     55 H28        -5.3672   -5.7814   -3.1545 H         1 <0>         0.0723
     56 H29        -3.4254    0.8203    0.5588 H         1 <0>         0.3832
     57 H30        -4.1063   -1.4305   -0.8165 H         1 <0>         0.4256
@<TRIPOS>BOND
     1    1    6 ar
     2    1    2 ar
     3    1   30 1
     4    2    3 ar
     5    2   31 1
     6    3    4 ar
     7    3   29 1
     8    4   27 1
     9    4    5 ar
    10    5    6 ar
    11    5   24 1
    12    6    7 1
    13    7    8 1
    14    7    9 1
    15    7   23 1
    16    9   10 1
    17    9   32 1
    18    9   33 1
    19   10   11 1
    20   10   34 1
    21   10   57 1
    22   11   16 1
    23   11   12 1
    24   11   35 1
    25   12   13 1
    26   12   36 1
    27   12   37 1
    28   13   14 1
    29   13   38 1
    30   13   39 1
    31   14   15 1
    32   14   40 1
    33   14   41 1
    34   15   16 1
    35   15   42 1
    36   15   43 1
    37   16   17 1
    38   16   44 1
    39   17   22 1
    40   17   18 1
    41   17   45 1
    42   18   19 1
    43   18   46 1
    44   18   47 1
    45   19   20 1
    46   19   48 1
    47   19   49 1
    48   20   21 1
    49   20   50 1
    50   20   51 1
    51   21   22 1
    52   21   52 1
    53   21   53 1
    54   22   54 1
    55   22   55 1
    56   23   56 1
    57   24   25 1
    58   25   26 2
    59   25   27 am
    60   27   28 1
@<TRIPOS>MOLECULE
CHEMBL1221801
   57    60     0     0     0
SMALL
USER_CHARGES

@<TRIPOS>ATOM
      1 C1         -0.4026    2.1119   -0.8304 C.ar      1 <0>        -0.0378
      2 C2          0.6675    2.9688   -1.0235 C.ar      1 <0>        -0.2401
      3 C3          1.9553    2.4894   -1.1346 C.ar      1 <0>         0.3003
      4 C4          2.2201    1.1077   -1.0539 C.ar      1 <0>        -0.0286
      5 C5          1.1141    0.2706   -0.8578 C.ar      1 <0>        -0.0475
      6 C6         -0.1697    0.7504   -0.7477 C.ar      1 <0>        -0.2325
      7 C7         -1.3182   -0.2024   -0.5373 C.3       1 <0>         0.1632
      8 H1         -0.9909   -1.0338    0.0870 H         1 <0>         0.1152
      9 C8         -1.7922   -0.7365   -1.8904 C.3       1 <0>        -0.0486
     10 N1         -2.9118   -1.6652   -1.6853 N.4       1 <0>        -0.5049
     11 C9         -3.3669   -2.1780   -2.9845 C.3       1 <0>         0.0258
     12 C10        -2.2637   -3.0341   -3.6097 C.3       1 <0>        -0.1420
     13 C11        -2.7377   -3.5682   -4.9628 C.3       1 <0>        -0.1159
     14 C12        -3.9931   -4.4199   -4.7635 C.3       1 <0>        -0.1293
     15 C13        -5.0963   -3.5638   -4.1383 C.3       1 <0>        -0.1139
     16 C14        -4.6222   -3.0297   -2.7852 C.3       1 <0>        -0.1004
     17 C15        -5.7254   -2.1735   -2.1600 C.3       1 <0>        -0.0965
     18 C16        -6.9669   -3.0355   -1.9222 C.3       1 <0>        -0.1134
     19 C17        -8.0701   -2.1794   -1.2969 C.3       1 <0>        -0.1227
     20 C18        -8.4213   -1.0295   -2.2431 C.3       1 <0>        -0.1233
     21 C19        -7.1798   -0.1675   -2.4810 C.3       1 <0>        -0.1222
     22 C20        -6.0766   -1.0236   -3.1062 C.3       1 <0>        -0.1246
     23 O1         -2.3936    0.4830    0.1076 O.3       1 <0>        -0.5545
     24 S1          1.8372   -1.3514   -0.8104 S.3       1 <0>        -0.1193
     25 C21         3.5395   -0.8678   -1.0472 C.2       1 <0>         0.5376
     26 O2          4.5308   -1.5717   -1.1053 O.2       1 <0>        -0.4760
     27 N2          3.4498    0.4732   -1.1453 N.am      1 <0>        -0.6197
     28 H2          4.2530    0.9997   -1.2812 H         1 <0>         0.4154
     29 O3          2.9822    3.3601   -1.3247 O.3       1 <0>        -0.6867
     30 H3         -1.4059    2.5015   -0.7410 H         1 <0>         0.1127
     31 H4          0.4902    4.0322   -1.0887 H         1 <0>         0.1172
     32 H5         -2.1196    0.0949   -2.5147 H         1 <0>         0.1348
     33 H6         -0.9719   -1.2592   -2.3823 H         1 <0>         0.1420
     34 H7         -2.6088   -2.4348   -1.1074 H         1 <0>         0.4234
     35 H8         -3.5962   -1.3418   -3.6450 H         1 <0>         0.1389
     36 H9         -1.3694   -2.4274   -3.7516 H         1 <0>         0.0909
     37 H10        -2.0344   -3.8703   -2.9491 H         1 <0>         0.0873
     38 H11        -2.9671   -2.7320   -5.6233 H         1 <0>         0.0730
     39 H12        -1.9518   -4.1782   -5.4082 H         1 <0>         0.0829
     40 H13        -4.3308   -4.8004   -5.7275 H         1 <0>         0.0758
     41 H14        -3.7637   -5.2561   -4.1030 H         1 <0>         0.0690
     42 H15        -5.3256   -2.7276   -4.7989 H         1 <0>         0.0767
     43 H16        -5.9906   -4.1705   -3.9964 H         1 <0>         0.0843
     44 H17        -4.3929   -3.8659   -2.1247 H         1 <0>         0.0950
     45 H18        -5.3767   -1.7687   -1.2099 H         1 <0>         0.0666
     46 H19        -7.3156   -3.4404   -2.8722 H         1 <0>         0.0726
     47 H20        -6.7167   -3.8548   -1.2481 H         1 <0>         0.0663
     48 H21        -8.9546   -2.7935   -1.1275 H         1 <0>         0.0669
     49 H22        -7.7214   -1.7746   -0.3469 H         1 <0>         0.0632
     50 H23        -8.7700   -1.4343   -3.1932 H         1 <0>         0.0634
     51 H24        -9.2072   -0.4196   -1.7977 H         1 <0>         0.0654
     52 H25        -7.4299    0.6517   -3.1551 H         1 <0>         0.0675
     53 H26        -6.8311    0.2373   -1.5309 H         1 <0>         0.0636
     54 H27        -5.1921   -0.4095   -3.2756 H         1 <0>         0.0576
     55 H28        -6.4253   -1.4284   -4.0563 H         1 <0>         0.0774
     56 H29        -2.7360    1.2365   -0.3926 H         1 <0>         0.3830
     57 H30        -3.6711   -1.1813   -1.2300 H         1 <0>         0.4255
@<TRIPOS>BOND
     1    1    6 ar
     2    1    2 ar
     3    1   30 1
     4    2    3 ar
     5    2   31 1
     6    3    4 ar
     7    3   29 1
     8    4   27 1
     9    4    5 ar
    10    5    6 ar
    11    5   24 1
    12    6    7 1
    13    7    8 1
    14    7    9 1
    15    7   23 1
    16    9   10 1
    17    9   32 1
    18    9   33 1
    19   10   11 1
    20   10   34 1
    21   10   57 1
    22   11   16 1
    23   11   12 1
    24   11   35 1
    25   12   13 1
    26   12   36 1
    27   12   37 1
    28   13   14 1
    29   13   38 1
    30   13   39 1
    31   14   15 1
    32   14   40 1
    33   14   41 1
    34   15   16 1
    35   15   42 1
    36   15   43 1
    37   16   17 1
    38   16   44 1
    39   17   22 1
    40   17   18 1
    41   17   45 1
    42   18   19 1
    43   18   46 1
    44   18   47 1
    45   19   20 1
    46   19   48 1
    47   19   49 1
    48   20   21 1
    49   20   50 1
    50   20   51 1
    51   21   22 1
    52   21   52 1
    53   21   53 1
    54   22   54 1
    55   22   55 1
    56   23   56 1
    57   24   25 1
    58   25   26 2
    59   25   27 am
    60   27   28 1
@<TRIPOS>MOLECULE
CHEMBL1221801
   57    60     0     0     0
SMALL
USER_CHARGES

@<TRIPOS>ATOM
      1 C1         -0.0167    1.3796    0.0096 C.ar      1 <0>        -0.0377
      2 C2          1.1829    2.0705    0.0019 C.ar      1 <0>        -0.2400
      3 C3          2.3903    1.4051   -0.0137 C.ar      1 <0>         0.3004
      4 C4          2.4377   -0.0032   -0.0217 C.ar      1 <0>        -0.0287
      5 C5          1.2054   -0.6693   -0.0130 C.ar      1 <0>        -0.0475
      6 C6          0.0021   -0.0041    0.0020 C.ar      1 <0>        -0.2321
      7 C7         -1.2907   -0.7785    0.0107 C.3       1 <0>         0.1633
      8 H1         -1.1640   -1.6905    0.5940 H         1 <0>         0.1140
      9 C8         -1.6778   -1.1407   -1.4245 C.3       1 <0>        -0.0501
     10 N1         -2.9380   -1.8956   -1.4160 N.4       1 <0>        -0.5052
     11 C9         -3.3097   -2.2434   -2.7940 C.3       1 <0>         0.0294
     12 C10        -2.2683   -3.2007   -3.3770 C.3       1 <0>        -0.1436
     13 C11        -2.2122   -4.4721   -2.5276 C.3       1 <0>        -0.1364
     14 C12        -3.5846   -5.1483   -2.5304 C.3       1 <0>        -0.1289
     15 C13        -4.6261   -4.1910   -1.9474 C.3       1 <0>        -0.1322
     16 C14        -4.6822   -2.9196   -2.7968 C.3       1 <0>        -0.1015
     17 C15        -5.7236   -1.9623   -2.2138 C.3       1 <0>        -0.0967
     18 C16        -7.0960   -2.6386   -2.2166 C.3       1 <0>        -0.1132
     19 C17        -8.1375   -1.6812   -1.6336 C.3       1 <0>        -0.1229
     20 C18        -8.1936   -0.4099   -2.4830 C.3       1 <0>        -0.1237
     21 C19        -6.8211    0.2663   -2.4802 C.3       1 <0>        -0.1221
     22 C20        -5.7797   -0.6910   -3.0632 C.3       1 <0>        -0.1231
     23 O1         -2.3211    0.0211    0.5946 O.3       1 <0>        -0.5544
     24 S1          1.6714   -2.3835   -0.0263 S.3       1 <0>        -0.1191
     25 C21         3.4422   -2.1558   -0.0424 C.2       1 <0>         0.5375
     26 O2          4.3192   -2.9998   -0.0552 O.2       1 <0>        -0.4761
     27 N2          3.5628   -0.8137   -0.0368 N.am      1 <0>        -0.6196
     28 H2          4.4451   -0.4107   -0.0434 H         1 <0>         0.4153
     29 O3          3.5491    2.1163   -0.0218 O.3       1 <0>        -0.6868
     30 H3         -0.9553    1.9136    0.0259 H         1 <0>         0.1128
     31 H4          1.1728    3.1505    0.0078 H         1 <0>         0.1172
     32 H5         -1.8046   -0.2287   -2.0078 H         1 <0>         0.1360
     33 H6         -0.8919   -1.7507   -1.8699 H         1 <0>         0.1421
     34 H7         -2.8207   -2.7399   -0.8761 H         1 <0>         0.4211
     35 H8         -3.3497   -1.3377   -3.3991 H         1 <0>         0.1401
     36 H9         -2.5441   -3.4588   -4.3995 H         1 <0>         0.1088
     37 H10        -1.2906   -2.7190   -3.3750 H         1 <0>         0.0923
     38 H11        -1.4703   -5.1541   -2.9430 H         1 <0>         0.0918
     39 H12        -1.9364   -4.2140   -1.5052 H         1 <0>         0.0597
     40 H13        -3.8605   -5.4063   -3.5529 H         1 <0>         0.0766
     41 H14        -3.5447   -6.0540   -1.9253 H         1 <0>         0.0784
     42 H15        -5.6038   -4.6727   -1.9494 H         1 <0>         0.0922
     43 H16        -4.3502   -3.9329   -0.9249 H         1 <0>         0.0586
     44 H17        -4.9580   -3.1777   -3.8193 H         1 <0>         0.1165
     45 H18        -5.4478   -1.7043   -1.1913 H         1 <0>         0.0669
     46 H19        -7.3719   -2.8966   -3.2390 H         1 <0>         0.0694
     47 H20        -7.0561   -3.5443   -1.6114 H         1 <0>         0.0698
     48 H21        -9.1152   -2.1630   -1.6355 H         1 <0>         0.0669
     49 H22        -7.8616   -1.4232   -0.6111 H         1 <0>         0.0634
     50 H23        -8.4694   -0.6680   -3.5054 H         1 <0>         0.0635
     51 H24        -8.9355    0.2721   -2.0676 H         1 <0>         0.0655
     52 H25        -6.8611    1.1720   -3.0853 H         1 <0>         0.0680
     53 H26        -6.5453    0.5244   -1.4577 H         1 <0>         0.0641
     54 H27        -4.8020   -0.2093   -3.0612 H         1 <0>         0.0581
     55 H28        -6.0556   -0.9491   -4.0857 H         1 <0>         0.0742
     56 H29        -2.4884    0.8504    0.1263 H         1 <0>         0.3831
     57 H30        -3.6655   -1.3310   -1.0037 H         1 <0>         0.4247
@<TRIPOS>BOND
     1    1    6 ar
     2    1    2 ar
     3    1   30 1
     4    2    3 ar
     5    2   31 1
     6    3    4 ar
     7    3   29 1
     8    4   27 1
     9    4    5 ar
    10    5    6 ar
    11    5   24 1
    12    6    7 1
    13    7    8 1
    14    7    9 1
    15    7   23 1
    16    9   10 1
    17    9   32 1
    18    9   33 1
    19   10   11 1
    20   10   34 1
    21   10   57 1
    22   11   16 1
    23   11   12 1
    24   11   35 1
    25   12   13 1
    26   12   36 1
    27   12   37 1
    28   13   14 1
    29   13   38 1
    30   13   39 1
    31   14   15 1
    32   14   40 1
    33   14   41 1
    34   15   16 1
    35   15   42 1
    36   15   43 1
    37   16   17 1
    38   16   44 1
    39   17   22 1
    40   17   18 1
    41   17   45 1
    42   18   19 1
    43   18   46 1
    44   18   47 1
    45   19   20 1
    46   19   48 1
    47   19   49 1
    48   20   21 1
    49   20   50 1
    50   20   51 1
    51   21   22 1
    52   21   52 1
    53   21   53 1
    54   22   54 1
    55   22   55 1
    56   23   56 1
    57   24   25 1
    58   25   26 2
    59   25   27 am
    60   27   28 1
@<TRIPOS>MOLECULE
CHEMBL54749
   63    66     0     0     0
SMALL
USER_CHARGES

@<TRIPOS>ATOM
      1 C1         -8.4971   -7.2045   -2.0750 C.3       1 <0>        -0.1546
      2 C2         -7.5566   -8.4112   -2.0935 C.3       1 <0>        -0.1260
      3 C3         -6.4392   -8.1713   -3.1107 C.3       1 <0>        -0.1217
      4 C4         -5.4987   -9.3780   -3.1292 C.3       1 <0>        -0.1208
      5 C5         -4.3813   -9.1382   -4.1464 C.3       1 <0>        -0.1208
      6 C6         -3.4409  -10.3449   -4.1649 C.3       1 <0>        -0.1197
      7 C7         -2.3235  -10.1051   -5.1821 C.3       1 <0>        -0.1182
      8 C8         -1.3830  -11.3117   -5.2006 C.3       1 <0>        -0.0287
      9 C9         -0.2824  -11.0755   -6.2026 C.2       1 <0>        -0.0593
     10 C10         0.9035  -10.4980   -5.9597 C.2       1 <0>        -0.0088
     11 N1          1.5957  -10.4777   -7.1149 N.2       1 <0>        -0.5082
     12 C11         0.8622  -11.0270   -8.0517 C.2       1 <0>         0.4435
     13 O1         -0.3047  -11.4114   -7.5109 O.3       1 <0>        -0.2113
     14 N2          1.2307  -11.1886   -9.3746 N.pl3     1 <0>        -0.5092
     15 C12         0.3939  -11.7996  -10.4108 C.3       1 <0>         0.1121
     16 C13         1.2382  -11.7459  -11.6945 C.3       1 <0>        -0.0827
     17 C14         2.5315  -11.0863  -11.2715 C.ar      1 <0>        -0.1652
     18 C15         2.4527  -10.7878   -9.9198 C.ar      1 <0>         0.2348
     19 C16         3.5369  -10.1642   -9.2992 C.ar      1 <0>        -0.1576
     20 C17         4.6660   -9.8487  -10.0247 C.ar      1 <0>         0.0187
     21 C18         4.7329  -10.1469  -11.3731 C.ar      1 <0>        -0.7033
     22 C19         3.6664  -10.7716  -11.9932 C.ar      1 <0>         0.0310
     23 S1          6.1774   -9.7410  -12.2968 S.o2      1 <0>         2.6937
     24 O2          5.7528   -9.5063  -13.6324 O.2       1 <0>        -0.9542
     25 O3          6.8834   -8.7674  -11.5397 O.2       1 <0>        -0.9475
     26 N3          7.1311  -11.0943  -12.3342 N.pl3     1 <0>        -1.0638
     27 C20         7.6444  -11.6199  -11.1463 C.ar      1 <0>         0.1206
     28 C21         8.7024  -10.9880  -10.5054 C.ar      1 <0>        -0.1045
     29 C22         9.2073  -11.5102   -9.3308 C.ar      1 <0>        -0.1114
     30 C23         8.6610  -12.6610   -8.7928 C.ar      1 <0>        -0.1093
     31 C24         7.6076  -13.2926   -9.4283 C.ar      1 <0>        -0.1143
     32 C25         7.0942  -12.7726  -10.6002 C.ar      1 <0>        -0.1103
     33 H1         -7.9373   -6.3118   -1.7961 H         1 <0>         0.0535
     34 H2         -8.9308   -7.0667   -3.0654 H         1 <0>         0.0533
     35 H3         -9.2932   -7.3753   -1.3503 H         1 <0>         0.0537
     36 H4         -7.1229   -8.5490   -1.1030 H         1 <0>         0.0605
     37 H5         -8.1164   -9.3039   -2.3724 H         1 <0>         0.0602
     38 H6         -6.8730   -8.0335   -4.1012 H         1 <0>         0.0605
     39 H7         -5.8794   -7.2786   -2.8318 H         1 <0>         0.0610
     40 H8         -5.0650   -9.5158   -2.1387 H         1 <0>         0.0617
     41 H9         -6.0585  -10.2707   -3.4081 H         1 <0>         0.0610
     42 H10        -4.8151   -9.0004   -5.1369 H         1 <0>         0.0610
     43 H11        -3.8215   -8.2455   -3.8675 H         1 <0>         0.0623
     44 H12        -3.0071  -10.4827   -3.1745 H         1 <0>         0.0657
     45 H13        -4.0007  -11.2376   -4.4438 H         1 <0>         0.0640
     46 H14        -2.7572   -9.9673   -6.1726 H         1 <0>         0.0644
     47 H15        -1.7637   -9.2123   -4.9032 H         1 <0>         0.0689
     48 H16        -0.9492  -11.4495   -4.2102 H         1 <0>         0.0999
     49 H17        -1.9428  -12.2044   -5.4795 H         1 <0>         0.0825
     50 H18         1.2429  -10.1173   -5.0077 H         1 <0>         0.1888
     51 H19         0.1655  -12.8334  -10.1515 H         1 <0>         0.0885
     52 H20        -0.5260  -11.2290  -10.5391 H         1 <0>         0.0882
     53 H21         1.4287  -12.7524  -12.0667 H         1 <0>         0.0997
     54 H22         0.7368  -11.1469  -12.4547 H         1 <0>         0.1004
     55 H23         3.4909   -9.9283   -8.2462 H         1 <0>         0.1546
     56 H24         5.5011   -9.3667   -9.5381 H         1 <0>         0.1469
     57 H25         3.7169  -11.0047  -13.0466 H         1 <0>         0.1436
     58 H26         7.3332  -11.5219  -13.1811 H         1 <0>         0.4253
     59 H27         9.1300  -10.0896  -10.9254 H         1 <0>         0.1356
     60 H28        10.0299  -11.0194   -8.8320 H         1 <0>         0.1304
     61 H29         9.0581  -13.0677   -7.8745 H         1 <0>         0.1267
     62 H30         7.1833  -14.1913   -9.0055 H         1 <0>         0.1268
     63 H31         6.2686  -13.2639  -11.0936 H         1 <0>         0.1270
@<TRIPOS>BOND
     1    1    2 1
     2    1   33 1
     3    1   34 1
     4    1   35 1
     5    2    3 1
     6    2   36 1
     7    2   37 1
     8    3    4 1
     9    3   38 1
    10    3   39 1
    11    4    5 1
    12    4   40 1
    13    4   41 1
    14    5    6 1
    15    5   42 1
    16    5   43 1
    17    6    7 1
    18    6   44 1
    19    6   45 1
    20    7    8 1
    21    7   46 1
    22    7   47 1
    23    8    9 1
    24    8   48 1
    25    8   49 1
    26    9   13 1
    27    9   10 2
    28   10   11 1
    29   10   50 1
    30   11   12 2
    31   12   13 1
    32   12   14 1
    33   14   18 1
    34   14   15 1
    35   15   16 1
    36   15   51 1
    37   15   52 1
    38   16   17 1
    39   16   53 1
    40   16   54 1
    41   17   22 ar
    42   17   18 ar
    43   18   19 ar
    44   19   20 ar
    45   19   55 1
    46   20   21 ar
    47   20   56 1
    48   21   22 ar
    49   21   23 1
    50   22   57 1
    51   23   24 2
    52   23   25 2
    53   23   26 1
    54   26   27 1
    55   26   58 1
    56   27   32 ar
    57   27   28 ar
    58   28   29 ar
    59   28   59 1
    60   29   30 ar
    61   29   60 1
    62   30   31 ar
    63   30   61 1
    64   31   32 ar
    65   31   62 1
    66   32   63 1
@<TRIPOS>MOLECULE
CHEMBL177442
   76    80     0     0     0
SMALL
USER_CHARGES

@<TRIPOS>ATOM
      1 C1         -0.4062    0.7333   -0.5050 C.3       1 <0>         0.1124
      2 N1         -0.0766   -0.6927   -0.5677 N.pl3     1 <0>        -0.6141
      3 C2          0.1936   -1.4369    0.6650 C.3       1 <0>         0.0808
      4 C3         -0.0208   -1.3325   -1.7831 C.2       1 <0>         0.5973
      5 N2         -0.2611   -0.6709   -2.8790 N.2       1 <0>        -0.7475
      6 N3          0.2895   -2.6754   -1.8421 N.pl3     1 <0>        -0.6118
      7 C4          0.3912   -3.3045   -3.0601 C.2       1 <0>         0.4714
      8 N4          0.3248   -2.7701   -4.2682 N.2       1 <0>        -0.6466
      9 C5          0.4388   -3.4876   -5.3646 C.2       1 <0>         0.5469
     10 O1          0.3762   -2.9824   -6.4742 O.2       1 <0>        -0.4435
     11 C6          0.6480   -4.9418   -5.1791 C.2       1 <0>        -0.2443
     12 C7          0.7989   -5.9242   -6.1046 C.2       1 <0>         0.0703
     13 C8          0.8170   -7.3302   -5.6858 C.ar      1 <0>        -0.1406
     14 C9          1.1502   -8.3334   -6.6056 C.ar      1 <0>        -0.0263
     15 C10         1.1657   -9.6411   -6.2111 C.ar      1 <0>        -0.1966
     16 C11         0.8505   -9.9780   -4.8971 C.ar      1 <0>         0.2316
     17 C12         0.5183   -8.9846   -3.9795 C.ar      1 <0>        -0.1919
     18 C13         0.5067   -7.6736   -4.3632 C.ar      1 <0>        -0.0367
     19 N5          0.8672  -11.3113   -4.5001 N.pl3     1 <0>        -0.6292
     20 C14         0.4816  -11.6905   -3.1340 C.3       1 <0>         0.1217
     21 C15        -0.6112  -12.7614   -3.2093 C.3       1 <0>        -0.1598
     22 C16        -0.1189  -13.9272   -4.0699 C.3       1 <0>         0.0273
     23 C17         0.1692  -13.4304   -5.4884 C.3       1 <0>        -0.1611
     24 C18         1.2649  -12.3676   -5.4407 C.3       1 <0>         0.1213
     25 N6         -1.1516  -14.9709   -4.1172 N.4       1 <0>        -0.5016
     26 C19        -0.6343  -16.1391   -4.8422 C.3       1 <0>        -0.0456
     27 C20        -1.7099  -17.2261   -4.8915 C.3       1 <0>         0.0857
     28 H1         -2.5918  -16.8417   -5.4039 H         1 <0>         0.1355
     29 C21        -1.1712  -18.4428   -5.6466 C.3       1 <0>         0.0315
     30 O2         -2.2118  -19.4110   -5.7941 O.3       1 <0>        -0.3032
     31 C22        -1.8969  -20.5609   -6.4479 C.ar      1 <0>         0.1356
     32 C23        -0.6133  -20.7565   -6.9320 C.ar      1 <0>        -0.2013
     33 C24        -0.2906  -21.9263   -7.5972 C.ar      1 <0>        -0.0664
     34 C25        -1.2441  -22.9078   -7.7846 C.ar      1 <0>        -0.1308
     35 C26        -2.5326  -22.7227   -7.3041 C.ar      1 <0>         0.1332
     36 C27        -2.8602  -21.5474   -6.6280 C.ar      1 <0>         0.0651
     37 N7         -4.2030  -21.6518   -6.2652 N.am      1 <0>        -0.6350
     38 C28        -4.6668  -22.8398   -6.6971 C.2       1 <0>         0.6837
     39 N8         -3.6848  -23.5047   -7.3345 N.am      1 <0>        -0.6388
     40 H2         -3.7636  -24.3834   -7.7378 H         1 <0>         0.4419
     41 O3         -5.8035  -23.2464   -6.5434 O.2       1 <0>        -0.5431
     42 O4         -2.0615  -17.6090   -3.5603 O.3       1 <0>        -0.5433
     43 S1          0.6527   -5.0395   -3.3933 S.3       1 <0>        -0.0179
     44 H3          0.5097    1.3210   -0.5669 H         1 <0>         0.0530
     45 H4         -1.0607    0.9919   -1.3374 H         1 <0>         0.0845
     46 H5         -0.9129    0.9482    0.4359 H         1 <0>         0.0692
     47 H6          0.1030   -0.7678    1.5206 H         1 <0>         0.0918
     48 H7         -0.5246   -2.2510    0.7627 H         1 <0>         0.0564
     49 H8          1.2034   -1.8457    0.6286 H         1 <0>         0.0572
     50 H9         -0.2283   -1.1239   -3.7361 H         1 <0>         0.3816
     51 H10         0.4360   -3.1757   -1.0241 H         1 <0>         0.4231
     52 H11         0.9056   -5.6704   -7.1490 H         1 <0>         0.1627
     53 H12         1.3941   -8.0731   -7.6250 H         1 <0>         0.1379
     54 H13         1.4224  -10.4149   -6.9193 H         1 <0>         0.1312
     55 H14         0.2742   -9.2507   -2.9616 H         1 <0>         0.1308
     56 H15         0.2539   -6.9034   -3.6495 H         1 <0>         0.1331
     57 H16         1.3483  -12.0893   -2.6070 H         1 <0>         0.0791
     58 H17         0.1007  -10.8163   -2.6059 H         1 <0>         0.1071
     59 H18        -0.8384  -13.1206   -2.2056 H         1 <0>         0.1024
     60 H19        -1.5093  -12.3340   -3.6552 H         1 <0>         0.0947
     61 H20         0.7931  -14.3384   -3.6369 H         1 <0>         0.1425
     62 H21         0.4974  -14.2657   -6.1069 H         1 <0>         0.0997
     63 H22        -0.7363  -12.9966   -5.9129 H         1 <0>         0.0952
     64 H23         1.4008  -11.9401   -6.4341 H         1 <0>         0.1073
     65 H24         2.1970  -12.8229   -5.1060 H         1 <0>         0.0782
     66 H25        -1.3998  -15.2412   -3.1773 H         1 <0>         0.4342
     67 H26        -0.3662  -15.8471   -5.8576 H         1 <0>         0.1478
     68 H27         0.2476  -16.5235   -4.3298 H         1 <0>         0.1413
     69 H28        -0.8206  -18.1334   -6.6312 H         1 <0>         0.0850
     70 H29        -0.3442  -18.8806   -5.0875 H         1 <0>         0.0803
     71 H30         0.1376  -19.9934   -6.7900 H         1 <0>         0.1353
     72 H31         0.7117  -22.0723   -7.9720 H         1 <0>         0.1419
     73 H32        -0.9871  -23.8185   -8.3051 H         1 <0>         0.1403
     74 H33        -1.3233  -17.9611   -3.0444 H         1 <0>         0.3906
     75 H34        -1.9680  -14.6150   -4.5915 H         1 <0>         0.4295
     76 H35        -4.7150  -20.9830   -5.7840 H         1 <0>         0.4383
@<TRIPOS>BOND
     1    1    2 1
     2    1   44 1
     3    1   45 1
     4    1   46 1
     5    2    3 1
     6    2    4 1
     7    3   47 1
     8    3   48 1
     9    3   49 1
    10    4    5 2
    11    4    6 1
    12    5   50 1
    13    6    7 1
    14    6   51 1
    15    7   43 1
    16    7    8 2
    17    8    9 1
    18    9   10 2
    19    9   11 1
    20   11   12 2
    21   11   43 1
    22   12   13 1
    23   12   52 1
    24   13   18 ar
    25   13   14 ar
    26   14   15 ar
    27   14   53 1
    28   15   16 ar
    29   15   54 1
    30   16   17 ar
    31   16   19 1
    32   17   18 ar
    33   17   55 1
    34   18   56 1
    35   19   24 1
    36   19   20 1
    37   20   21 1
    38   20   57 1
    39   20   58 1
    40   21   22 1
    41   21   59 1
    42   21   60 1
    43   22   23 1
    44   22   25 1
    45   22   61 1
    46   23   24 1
    47   23   62 1
    48   23   63 1
    49   24   64 1
    50   24   65 1
    51   25   26 1
    52   25   66 1
    53   25   75 1
    54   26   27 1
    55   26   67 1
    56   26   68 1
    57   27   28 1
    58   27   29 1
    59   27   42 1
    60   29   30 1
    61   29   69 1
    62   29   70 1
    63   30   31 1
    64   31   36 ar
    65   31   32 ar
    66   32   33 ar
    67   32   71 1
    68   33   34 ar
    69   33   72 1
    70   34   35 ar
    71   34   73 1
    72   35   39 1
    73   35   36 ar
    74   36   37 1
    75   37   38 am
    76   37   76 1
    77   38   39 am
    78   38   41 2
    79   39   40 1
    80   42   74 1
@<TRIPOS>MOLECULE
CHEMBL419787
   67    70     0     0     0
SMALL
USER_CHARGES

@<TRIPOS>ATOM
      1 C1          1.2220   -2.0726   -6.0007 C.ar      1 <0>        -0.1243
      2 C2          0.0501   -2.4993   -5.4035 C.ar      1 <0>        -0.1073
      3 C3          0.0462   -2.8672   -4.0721 C.ar      1 <0>        -0.1356
      4 C4          1.2196   -2.8084   -3.3338 C.ar      1 <0>         0.0983
      5 C5          2.3943   -2.3798   -3.9355 C.ar      1 <0>        -0.1343
      6 C6          2.3927   -2.0130   -5.2673 C.ar      1 <0>        -0.0993
      7 O1          1.2184   -3.1694   -2.0239 O.3       1 <0>        -0.2897
      8 C7          1.7585   -4.3711   -1.6930 C.ar      1 <0>         0.1161
      9 C8          0.9271   -5.4682   -1.4566 C.ar      1 <0>        -0.2012
     10 C9          1.4657   -6.7019   -1.1182 C.ar      1 <0>        -0.0616
     11 C10         2.8162   -6.8614   -1.0108 C.ar      1 <0>        -0.1912
     12 C11         3.6784   -5.7617   -1.2463 C.ar      1 <0>         0.2271
     13 C12         3.1264   -4.5078   -1.5964 C.ar      1 <0>        -0.1796
     14 N1          5.0005   -5.9094   -1.1429 N.2       1 <0>        -0.6412
     15 C13         5.5240   -6.4803   -0.0596 C.2       1 <0>         0.5274
     16 C14         6.8697   -6.8400   -0.0433 C.2       1 <0>        -0.3541
     17 N2          7.5079   -7.0802    1.1625 N.pl3     1 <0>         0.1584
     18 O2          6.8676   -7.1236    2.1872 O.2       1 <0>        -0.3593
     19 O3          8.7050   -7.2464    1.1903 O.3       1 <0>        -0.3303
     20 N3          4.7321   -6.7159    1.0484 N.pl3     1 <0>        -0.6814
     21 C15         3.5615   -5.9819    1.2378 C.ar      1 <0>         0.2021
     22 C16         3.4992   -4.6528    0.8340 C.ar      1 <0>        -0.1371
     23 C17         2.3386   -3.9295    1.0232 C.ar      1 <0>        -0.0601
     24 C18         1.2386   -4.5253    1.6136 C.ar      1 <0>        -0.1454
     25 C19         1.2967   -5.8473    2.0166 C.ar      1 <0>        -0.0779
     26 C20         2.4519   -6.5789    1.8256 C.ar      1 <0>        -0.1581
     27 C21        -0.0261   -3.7320    1.8186 C.3       1 <0>        -0.0828
     28 C22        -0.9256   -3.8795    0.5898 C.3       1 <0>        -0.0187
     29 N4         -2.1585   -3.1062    0.7897 N.4       1 <0>        -0.5041
     30 C23        -3.0221   -3.2478   -0.3902 C.3       1 <0>        -0.0428
     31 C24        -4.3062   -2.4424   -0.1820 C.3       1 <0>         0.1412
     32 H1         -4.0564   -1.3911   -0.0386 H         1 <0>         0.1333
     33 C25        -5.1921   -2.5877   -1.3923 C.ar      1 <0>        -0.1949
     34 C26        -5.1542   -1.6438   -2.4076 C.ar      1 <0>        -0.0541
     35 C27        -5.9869   -1.8183   -3.5021 C.ar      1 <0>        -0.1645
     36 C28        -6.8214   -2.9194   -3.5448 C.ar      1 <0>         0.1190
     37 N5         -6.8312   -3.7968   -2.5606 N.ar      1 <0>        -0.4757
     38 C29        -6.0484   -3.6661   -1.5072 C.ar      1 <0>         0.1168
     39 O4         -4.9928   -2.9306    0.9723 O.3       1 <0>        -0.5466
     40 H2          1.2239   -1.7896   -7.0429 H         1 <0>         0.1264
     41 H3         -0.8630   -2.5445   -5.9785 H         1 <0>         0.1258
     42 H4         -0.8695   -3.2001   -3.6061 H         1 <0>         0.1182
     43 H5          3.3089   -2.3328   -3.3631 H         1 <0>         0.1303
     44 H6          3.3067   -1.6797   -5.7362 H         1 <0>         0.1292
     45 H7         -0.1440   -5.3557   -1.5375 H         1 <0>         0.1010
     46 H8          0.8108   -7.5416   -0.9382 H         1 <0>         0.1100
     47 H9          3.2277   -7.8242   -0.7464 H         1 <0>         0.1106
     48 H10         3.7719   -3.6622   -1.7826 H         1 <0>         0.1185
     49 H11         7.4155   -6.9316   -0.9707 H         1 <0>         0.1642
     50 H12         4.9906   -7.3917    1.6944 H         1 <0>         0.4220
     51 H13         4.3577   -4.1868    0.3734 H         1 <0>         0.1256
     52 H14         2.2896   -2.8970    0.7102 H         1 <0>         0.1166
     53 H15         0.4360   -6.3090    2.4775 H         1 <0>         0.1150
     54 H16         2.4950   -7.6123    2.1364 H         1 <0>         0.1206
     55 H17        -0.5499   -4.1044    2.6991 H         1 <0>         0.0866
     56 H18         0.2236   -2.6807    1.9620 H         1 <0>         0.0875
     57 H19        -0.4019   -3.5071   -0.2906 H         1 <0>         0.1448
     58 H20        -1.1753   -4.9308    0.4464 H         1 <0>         0.1314
     59 H21        -2.6433   -3.4509    1.6047 H         1 <0>         0.4281
     60 H22        -2.4983   -2.8754   -1.2706 H         1 <0>         0.1442
     61 H23        -3.2718   -4.2991   -0.5335 H         1 <0>         0.1360
     62 H24        -4.4919   -0.7929   -2.3468 H         1 <0>         0.1413
     63 H25        -5.9840   -1.1027   -4.3110 H         1 <0>         0.1455
     64 H26        -7.4732   -3.0625   -4.3939 H         1 <0>         0.1649
     65 H27        -6.0804   -4.4081   -0.7231 H         1 <0>         0.1529
     66 H28        -5.2464   -3.8619    0.9145 H         1 <0>         0.3888
     67 H29        -1.9273   -2.1330    0.9224 H         1 <0>         0.4275
@<TRIPOS>BOND
     1    1    6 ar
     2    1    2 ar
     3    1   40 1
     4    2    3 ar
     5    2   41 1
     6    3    4 ar
     7    3   42 1
     8    4    5 ar
     9    4    7 1
    10    5    6 ar
    11    5   43 1
    12    6   44 1
    13    7    8 1
    14    8   13 ar
    15    8    9 ar
    16    9   10 ar
    17    9   45 1
    18   10   11 ar
    19   10   46 1
    20   11   12 ar
    21   11   47 1
    22   12   13 ar
    23   12   14 1
    24   13   48 1
    25   14   15 2
    26   15   20 1
    27   15   16 1
    28   16   17 1
    29   16   49 1
    30   17   18 2
    31   17   19 1
    32   20   21 1
    33   20   50 1
    34   21   26 ar
    35   21   22 ar
    36   22   23 ar
    37   22   51 1
    38   23   24 ar
    39   23   52 1
    40   24   25 ar
    41   24   27 1
    42   25   26 ar
    43   25   53 1
    44   26   54 1
    45   27   28 1
    46   27   55 1
    47   27   56 1
    48   28   29 1
    49   28   57 1
    50   28   58 1
    51   29   30 1
    52   29   59 1
    53   29   67 1
    54   30   31 1
    55   30   60 1
    56   30   61 1
    57   31   32 1
    58   31   33 1
    59   31   39 1
    60   33   38 ar
    61   33   34 ar
    62   34   35 ar
    63   34   62 1
    64   35   36 ar
    65   35   63 1
    66   36   37 ar
    67   36   64 1
    68   37   38 ar
    69   38   65 1
    70   39   66 1
@<TRIPOS>MOLECULE
CHEMBL419787
   68    71     0     0     0
SMALL
USER_CHARGES

@<TRIPOS>ATOM
      1 C1          4.0734   -0.7261   -5.4973 C.ar      1 <0>        -0.1495
      2 C2          3.2379    0.0125   -4.6797 C.ar      1 <0>        -0.0809
      3 C3          2.7006   -0.5588   -3.5425 C.ar      1 <0>        -0.1421
      4 C4          2.9999   -1.8750   -3.2211 C.ar      1 <0>         0.1177
      5 C5          3.8386   -2.6139   -4.0432 C.ar      1 <0>        -0.1953
      6 C6          4.3733   -2.0378   -5.1792 C.ar      1 <0>        -0.0830
      7 O1          2.4730   -2.4392   -2.1028 O.3       1 <0>        -0.2578
      8 C7          2.7165   -3.7570   -1.8777 C.ar      1 <0>         0.1100
      9 C8          1.7240   -4.6977   -2.1209 C.ar      1 <0>        -0.1264
     10 C9          1.9662   -6.0395   -1.8937 C.ar      1 <0>        -0.0763
     11 C10         3.1962   -6.4532   -1.4237 C.ar      1 <0>        -0.1687
     12 C11         4.1996   -5.5151   -1.1765 C.ar      1 <0>         0.1122
     13 C12         3.9558   -4.1621   -1.4115 C.ar      1 <0>        -0.1281
     14 N1          5.4230   -5.9230   -0.7093 N.2       1 <0>        -0.5196
     15 C13         5.4979   -6.6668    0.3572 C.2       1 <0>         0.4120
     16 C14         4.2499   -6.9967    1.1349 C.3       1 <0>        -0.0238
     17 N2          4.6143   -7.6989    2.3680 N.pl3     1 <0>        -0.0194
     18 O2          5.4757   -7.2495    3.0875 O.2       1 <0>        -0.1607
     19 O3          4.0536   -8.7277    2.6660 O.3       1 <0>        -0.1199
     20 N3          6.7103   -7.1491    0.7716 N.pl3     1 <0>        -0.6412
     21 C15         7.8810   -6.7506    0.1197 C.ar      1 <0>         0.1766
     22 C16         7.9898   -5.4632   -0.3905 C.ar      1 <0>        -0.1061
     23 C17         9.1479   -5.0726   -1.0336 C.ar      1 <0>        -0.0870
     24 C18        10.1985   -5.9615   -1.1699 C.ar      1 <0>        -0.1253
     25 C19        10.0932   -7.2440   -0.6635 C.ar      1 <0>        -0.0847
     26 C20         8.9402   -7.6393   -0.0143 C.ar      1 <0>        -0.1409
     27 C21        11.4606   -5.5317   -1.8723 C.3       1 <0>        -0.0973
     28 C22        12.4332   -4.9344   -0.8533 C.3       1 <0>        -0.0076
     29 N4         13.6635   -4.5155   -1.5380 N.4       1 <0>        -0.5055
     30 C23        14.5973   -3.9419   -0.5597 C.3       1 <0>        -0.0427
     31 C24        15.8787   -3.5056   -1.2727 C.3       1 <0>         0.1416
     32 H1         15.6377   -2.7568   -2.0272 H         1 <0>         0.1337
     33 C25        16.8366   -2.9172   -0.2691 C.ar      1 <0>        -0.2005
     34 C26        16.8782   -1.5474   -0.0576 C.ar      1 <0>        -0.0549
     35 C27        17.7752   -1.0507    0.8754 C.ar      1 <0>        -0.1641
     36 C28        18.5926   -1.9312    1.5590 C.ar      1 <0>         0.1226
     37 N5         18.5260   -3.2283    1.3316 N.ar      1 <0>        -0.4748
     38 C29        17.6806   -3.7364    0.4561 C.ar      1 <0>         0.1173
     39 O4         16.4832   -4.6377   -1.9012 O.3       1 <0>        -0.5460
     40 H2          4.4888   -0.2789   -6.3883 H         1 <0>         0.1270
     41 H3          3.0056    1.0370   -4.9301 H         1 <0>         0.1341
     42 H4          2.0484    0.0186   -2.9041 H         1 <0>         0.1344
     43 H5          4.0734   -3.6385   -3.7951 H         1 <0>         0.1275
     44 H6          5.0258   -2.6126   -5.8196 H         1 <0>         0.1254
     45 H7          0.7595   -4.3796   -2.4884 H         1 <0>         0.1399
     46 H8          1.1905   -6.7664   -2.0843 H         1 <0>         0.1410
     47 H9          3.3820   -7.5023   -1.2469 H         1 <0>         0.1278
     48 H10         4.7300   -3.4321   -1.2265 H         1 <0>         0.1361
     49 H11         3.7227   -6.0757    1.3835 H         1 <0>         0.1682
     50 H12         3.6035   -7.6339    0.5314 H         1 <0>         0.1678
     51 H13         6.7571   -7.7673    1.5177 H         1 <0>         0.4243
     52 H14         7.1696   -4.7686   -0.2848 H         1 <0>         0.1421
     53 H15         9.2330   -4.0719   -1.4309 H         1 <0>         0.1272
     54 H16        10.9152   -7.9360   -0.7723 H         1 <0>         0.1296
     55 H17         8.8605   -8.6395    0.3852 H         1 <0>         0.1317
     56 H18        11.9217   -6.3953   -2.3517 H         1 <0>         0.0961
     57 H19        11.2196   -4.7829   -2.6268 H         1 <0>         0.0957
     58 H20        11.9721   -4.0709   -0.3739 H         1 <0>         0.1337
     59 H21        12.6742   -5.6832   -0.0988 H         1 <0>         0.1338
     60 H22        14.0903   -5.3148   -1.9817 H         1 <0>         0.4325
     61 H23        14.1362   -3.0784   -0.0803 H         1 <0>         0.1446
     62 H24        14.8383   -4.6907    0.1949 H         1 <0>         0.1379
     63 H25        16.2274   -0.8832   -0.6069 H         1 <0>         0.1410
     64 H26        17.8349    0.0108    1.0654 H         1 <0>         0.1472
     65 H27        19.2941   -1.5523    2.2874 H         1 <0>         0.1672
     66 H28        17.6510   -4.8048    0.3007 H         1 <0>         0.1530
     67 H29        16.7246   -5.3455   -1.2882 H         1 <0>         0.3900
     68 H30        13.4404   -3.8223   -2.2364 H         1 <0>         0.4295
@<TRIPOS>BOND
     1    1    6 ar
     2    1    2 ar
     3    1   40 1
     4    2    3 ar
     5    2   41 1
     6    3    4 ar
     7    3   42 1
     8    4    5 ar
     9    4    7 1
    10    5    6 ar
    11    5   43 1
    12    6   44 1
    13    7    8 1
    14    8   13 ar
    15    8    9 ar
    16    9   10 ar
    17    9   45 1
    18   10   11 ar
    19   10   46 1
    20   11   12 ar
    21   11   47 1
    22   12   13 ar
    23   12   14 1
    24   13   48 1
    25   14   15 2
    26   15   20 1
    27   15   16 1
    28   16   17 1
    29   16   50 1
    30   16   49 1
    31   17   18 2
    32   17   19 1
    33   20   21 1
    34   20   51 1
    35   21   26 ar
    36   21   22 ar
    37   22   23 ar
    38   22   52 1
    39   23   24 ar
    40   23   53 1
    41   24   25 ar
    42   24   27 1
    43   25   26 ar
    44   25   54 1
    45   26   55 1
    46   27   28 1
    47   27   56 1
    48   27   57 1
    49   28   29 1
    50   28   58 1
    51   28   59 1
    52   29   30 1
    53   29   60 1
    54   29   68 1
    55   30   31 1
    56   30   61 1
    57   30   62 1
    58   31   32 1
    59   31   33 1
    60   31   39 1
    61   33   38 ar
    62   33   34 ar
    63   34   35 ar
    64   34   63 1
    65   35   36 ar
    66   35   64 1
    67   36   37 ar
    68   36   65 1
    69   37   38 ar
    70   38   66 1
    71   39   67 1
@<TRIPOS>MOLECULE
CHEMBL419787
   68    71     0     0     0
SMALL
USER_CHARGES

@<TRIPOS>ATOM
      1 C1          8.0353  -12.6603    4.7923 C.ar      1 <0>        -0.1477
      2 C2          6.8883  -12.5653    5.5586 C.ar      1 <0>        -0.0819
      3 C3          6.3520  -11.3263    5.8509 C.ar      1 <0>        -0.1454
      4 C4          6.9654  -10.1764    5.3747 C.ar      1 <0>         0.1145
      5 C5          8.1164  -10.2745    4.6059 C.ar      1 <0>        -0.1940
      6 C6          8.6485  -11.5160    4.3165 C.ar      1 <0>        -0.0801
      7 O1          6.4397   -8.9564    5.6603 O.3       1 <0>        -0.2626
      8 C7          7.0942   -7.8567    5.2033 C.ar      1 <0>         0.1024
      9 C8          7.9799   -7.1812    6.0330 C.ar      1 <0>        -0.1259
     10 C9          8.6484   -6.0621    5.5733 C.ar      1 <0>        -0.0830
     11 C10         8.4401   -5.6086    4.2864 C.ar      1 <0>        -0.0955
     12 C11         7.5520   -6.2810    3.4455 C.ar      1 <0>         0.1264
     13 C12         6.8823   -7.4134    3.9087 C.ar      1 <0>        -0.1712
     14 N1          7.3428   -5.8329    2.1662 N.2       1 <0>        -0.5179
     15 C13         6.1368   -5.5484    1.7649 C.2       1 <0>         0.4137
     16 C14         5.9068   -4.3843    0.8360 C.3       1 <0>         0.0133
     17 N2          7.1973   -3.8431    0.4024 N.pl3     1 <0>        -0.0126
     18 O2          8.0794   -4.5916    0.0514 O.2       1 <0>        -0.0946
     19 O3          7.3800   -2.6480    0.3955 O.3       1 <0>        -0.1671
     20 N3          5.0781   -6.3070    2.1870 N.pl3     1 <0>        -0.6834
     21 C15         3.8159   -5.7244    2.3353 C.ar      1 <0>         0.1735
     22 C16         3.4154   -4.7045    1.4816 C.ar      1 <0>        -0.1921
     23 C17         2.1677   -4.1315    1.6306 C.ar      1 <0>        -0.0669
     24 C18         1.3174   -4.5721    2.6282 C.ar      1 <0>        -0.1300
     25 C19         1.7132   -5.5870    3.4801 C.ar      1 <0>        -0.0690
     26 C20         2.9573   -6.1682    3.3330 C.ar      1 <0>        -0.1411
     27 C21        -0.0434   -3.9445    2.7878 C.3       1 <0>        -0.0988
     28 C22        -1.0801   -4.7747    2.0284 C.3       1 <0>        -0.0077
     29 N4         -2.4066   -4.1630    2.1839 N.4       1 <0>        -0.5056
     30 C23        -3.4020   -4.9601    1.4548 C.3       1 <0>        -0.0427
     31 C24        -4.7836   -4.3229    1.6167 C.3       1 <0>         0.1418
     32 H1         -4.7655   -3.3094    1.2160 H         1 <0>         0.1341
     33 C25        -5.8047   -5.1407    0.8688 C.ar      1 <0>        -0.2012
     34 C26        -6.1626   -4.8021   -0.4275 C.ar      1 <0>        -0.0548
     35 C27        -7.1062   -5.5830   -1.0768 C.ar      1 <0>        -0.1639
     36 C28        -7.6551   -6.6654   -0.4153 C.ar      1 <0>         0.1229
     37 N5         -7.2912   -6.9576    0.8179 N.ar      1 <0>        -0.4747
     38 C29        -6.3922   -6.2408    1.4639 C.ar      1 <0>         0.1173
     39 O4         -5.1293   -4.2811    3.0027 O.3       1 <0>        -0.5459
     40 H2          8.4555  -13.6298    4.5687 H         1 <0>         0.1285
     41 H3          6.4110  -13.4607    5.9288 H         1 <0>         0.1335
     42 H4          5.4559  -11.2527    6.4492 H         1 <0>         0.1317
     43 H5          8.5955   -9.3810    4.2337 H         1 <0>         0.1268
     44 H6          9.5445  -11.5929    3.7184 H         1 <0>         0.1285
     45 H7          8.1465   -7.5314    7.0410 H         1 <0>         0.1380
     46 H8          9.3356   -5.5407    6.2231 H         1 <0>         0.1437
     47 H9          8.9638   -4.7337    3.9305 H         1 <0>         0.1393
     48 H10         6.1975   -7.9406    3.2609 H         1 <0>         0.1193
     49 H11         5.3426   -4.7198   -0.0342 H         1 <0>         0.1609
     50 H12         5.3444   -3.6094    1.3569 H         1 <0>         0.1674
     51 H13         5.2037   -7.2486    2.3832 H         1 <0>         0.4262
     52 H14         4.0791   -4.3597    0.7025 H         1 <0>         0.1428
     53 H15         1.8558   -3.3382    0.9674 H         1 <0>         0.1344
     54 H16         1.0471   -5.9283    4.2587 H         1 <0>         0.1328
     55 H17         3.2640   -6.9641    3.9956 H         1 <0>         0.1355
     56 H18        -0.3071   -3.9125    3.8449 H         1 <0>         0.0983
     57 H19        -0.0253   -2.9310    2.3870 H         1 <0>         0.0981
     58 H20        -0.8164   -4.8067    0.9712 H         1 <0>         0.1339
     59 H21        -1.0982   -5.7882    2.4291 H         1 <0>         0.1332
     60 H22        -2.6507   -4.1334    3.1625 H         1 <0>         0.4330
     61 H23        -3.1383   -4.9921    0.3976 H         1 <0>         0.1447
     62 H24        -3.4201   -5.9736    1.8555 H         1 <0>         0.1377
     63 H25        -5.7170   -3.9501   -0.9194 H         1 <0>         0.1411
     64 H26        -7.4088   -5.3483   -2.0867 H         1 <0>         0.1475
     65 H27        -8.3909   -7.2788   -0.9142 H         1 <0>         0.1675
     66 H28        -6.1154   -6.5140    2.4714 H         1 <0>         0.1528
     67 H29        -5.1644   -5.1499    3.4257 H         1 <0>         0.3900
     68 H30        -2.3899   -3.2248    1.8129 H         1 <0>         0.4301
@<TRIPOS>BOND
     1    1    6 ar
     2    1    2 ar
     3    1   40 1
     4    2    3 ar
     5    2   41 1
     6    3    4 ar
     7    3   42 1
     8    4    5 ar
     9    4    7 1
    10    5    6 ar
    11    5   43 1
    12    6   44 1
    13    7    8 1
    14    8   13 ar
    15    8    9 ar
    16    9   10 ar
    17    9   45 1
    18   10   11 ar
    19   10   46 1
    20   11   12 ar
    21   11   47 1
    22   12   13 ar
    23   12   14 1
    24   13   48 1
    25   14   15 2
    26   15   20 1
    27   15   16 1
    28   16   17 1
    29   16   50 1
    30   16   49 1
    31   17   18 2
    32   17   19 1
    33   20   21 1
    34   20   51 1
    35   21   26 ar
    36   21   22 ar
    37   22   23 ar
    38   22   52 1
    39   23   24 ar
    40   23   53 1
    41   24   25 ar
    42   24   27 1
    43   25   26 ar
    44   25   54 1
    45   26   55 1
    46   27   28 1
    47   27   56 1
    48   27   57 1
    49   28   29 1
    50   28   58 1
    51   28   59 1
    52   29   30 1
    53   29   60 1
    54   29   68 1
    55   30   31 1
    56   30   61 1
    57   30   62 1
    58   31   32 1
    59   31   33 1
    60   31   39 1
    61   33   38 ar
    62   33   34 ar
    63   34   35 ar
    64   34   63 1
    65   35   36 ar
    66   35   64 1
    67   36   37 ar
    68   36   65 1
    69   37   38 ar
    70   38   66 1
    71   39   67 1
@<TRIPOS>MOLECULE
CHEMBL419787
   67    70     0     0     0
SMALL
USER_CHARGES

@<TRIPOS>ATOM
      1 C1         -0.4038   -2.0239   -0.8555 C.ar      1 <0>        -0.1586
      2 C2          0.2629   -3.1614   -0.4390 C.ar      1 <0>        -0.0815
      3 C3          1.4186   -3.5604   -1.0819 C.ar      1 <0>        -0.1906
      4 C4          1.9104   -2.8186   -2.1465 C.ar      1 <0>         0.1276
      5 C5          1.2394   -1.6774   -2.5624 C.ar      1 <0>        -0.1532
      6 C6          0.0841   -1.2828   -1.9160 C.ar      1 <0>        -0.0865
      7 O1          3.0473   -3.2086   -2.7802 O.3       1 <0>        -0.2617
      8 C7          3.6684   -4.3340   -2.3408 C.ar      1 <0>         0.0976
      9 C8          3.2013   -5.5890   -2.7380 C.ar      1 <0>        -0.1805
     10 C9          3.8268   -6.7468   -2.2967 C.ar      1 <0>        -0.0833
     11 C10         4.9077   -6.6764   -1.4675 C.ar      1 <0>        -0.1611
     12 C11         5.3984   -5.4137   -1.0520 C.ar      1 <0>         0.2109
     13 C12         4.7621   -4.2360   -1.5081 C.ar      1 <0>        -0.1615
     14 N1          6.4549   -5.3364   -0.2407 N.2       1 <0>        -0.6468
     15 C13         6.4414   -5.9671    0.9320 C.2       1 <0>         0.5356
     16 C14         5.2813   -6.6037    1.3672 C.2       1 <0>        -0.4189
     17 N2          5.3660   -7.6823    2.2323 N.pl3     1 <0>         0.1633
     18 O2          6.4219   -8.2499    2.3892 O.2       1 <0>        -0.3709
     19 O3          4.3841   -8.0561    2.8304 O.3       1 <0>        -0.3434
     20 N3          7.5785   -5.9899    1.7175 N.pl3     1 <0>        -0.6500
     21 C15         8.7069   -5.2668    1.3321 C.ar      1 <0>         0.2067
     22 C16         8.5640   -4.0572    0.6614 C.ar      1 <0>        -0.1153
     23 C17         9.6835   -3.3442    0.2815 C.ar      1 <0>        -0.0884
     24 C18        10.9462   -3.8318    0.5672 C.ar      1 <0>        -0.1569
     25 C19        11.0924   -5.0348    1.2342 C.ar      1 <0>        -0.0858
     26 C20         9.9776   -5.7507    1.6225 C.ar      1 <0>        -0.1623
     27 C21        12.1656   -3.0506    0.1502 C.3       1 <0>        -0.0878
     28 C22        12.5624   -2.0878    1.2711 C.3       1 <0>        -0.0085
     29 N4         13.7510   -1.3263    0.8646 N.4       1 <0>        -0.5053
     30 C23        14.1320   -0.4019    1.9409 C.3       1 <0>        -0.0425
     31 C24        15.3700    0.3912    1.5175 C.3       1 <0>         0.1408
     32 H1         15.1468    0.9581    0.6137 H         1 <0>         0.1335
     33 C25        15.7608    1.3396    2.6216 C.ar      1 <0>        -0.1972
     34 C26        15.3182    2.6537    2.6079 C.ar      1 <0>        -0.0550
     35 C27        15.7028    3.4903    3.6442 C.ar      1 <0>        -0.1648
     36 C28        16.5089    2.9903    4.6496 C.ar      1 <0>         0.1200
     37 N5         16.9113    1.7348    4.6299 N.ar      1 <0>        -0.4757
     38 C29        16.5601    0.9091    3.6634 C.ar      1 <0>         0.1170
     39 O4         16.4483   -0.5104    1.2601 O.3       1 <0>        -0.5464
     40 H2         -1.3097   -1.7161   -0.3544 H         1 <0>         0.1225
     41 H3         -0.1200   -3.7382    0.3898 H         1 <0>         0.1251
     42 H4          1.9392   -4.4488   -0.7559 H         1 <0>         0.1317
     43 H5          1.6202   -1.0980   -3.3905 H         1 <0>         0.1288
     44 H6         -0.4387   -0.3949   -2.2396 H         1 <0>         0.1277
     45 H7          2.3460   -5.6590   -3.3937 H         1 <0>         0.1185
     46 H8          3.4549   -7.7105   -2.6119 H         1 <0>         0.1194
     47 H9          5.3886   -7.5819   -1.1279 H         1 <0>         0.1176
     48 H10         5.1280   -3.2669   -1.2026 H         1 <0>         0.1219
     49 H11         4.3158   -6.2565    1.0301 H         1 <0>         0.1559
     50 H12         7.5915   -6.5090    2.5369 H         1 <0>         0.4240
     51 H13         7.5786   -3.6761    0.4377 H         1 <0>         0.1486
     52 H14         9.5734   -2.4048   -0.2398 H         1 <0>         0.1179
     53 H15        12.0798   -5.4124    1.4552 H         1 <0>         0.1186
     54 H16        10.0925   -6.6877    2.1472 H         1 <0>         0.1274
     55 H17        12.9881   -3.7383   -0.0462 H         1 <0>         0.0895
     56 H18        11.9424   -2.4837   -0.7537 H         1 <0>         0.0901
     57 H19        11.7399   -1.4000    1.4674 H         1 <0>         0.1330
     58 H20        12.7856   -2.6547    2.1749 H         1 <0>         0.1324
     59 H21        14.5124   -1.9629    0.6829 H         1 <0>         0.4309
     60 H22        13.3095    0.2859    2.1372 H         1 <0>         0.1440
     61 H23        14.3552   -0.9688    2.8447 H         1 <0>         0.1369
     62 H24        14.6892    3.0169    1.8086 H         1 <0>         0.1414
     63 H25        15.3770    4.5197    3.6656 H         1 <0>         0.1462
     64 H26        16.8129    3.6356    5.4606 H         1 <0>         0.1659
     65 H27        16.9049   -0.1142    3.6840 H         1 <0>         0.1535
     66 H28        16.7013   -1.0489    2.0225 H         1 <0>         0.3896
     67 H29        13.5444   -0.8015    0.0280 H         1 <0>         0.4284
@<TRIPOS>BOND
     1    1    6 ar
     2    1    2 ar
     3    1   40 1
     4    2    3 ar
     5    2   41 1
     6    3    4 ar
     7    3   42 1
     8    4    5 ar
     9    4    7 1
    10    5    6 ar
    11    5   43 1
    12    6   44 1
    13    7    8 1
    14    8   13 ar
    15    8    9 ar
    16    9   10 ar
    17    9   45 1
    18   10   11 ar
    19   10   46 1
    20   11   12 ar
    21   11   47 1
    22   12   13 ar
    23   12   14 1
    24   13   48 1
    25   14   15 2
    26   15   20 1
    27   15   16 1
    28   16   17 1
    29   16   49 1
    30   17   18 2
    31   17   19 1
    32   20   21 1
    33   20   50 1
    34   21   26 ar
    35   21   22 ar
    36   22   23 ar
    37   22   51 1
    38   23   24 ar
    39   23   52 1
    40   24   25 ar
    41   24   27 1
    42   25   26 ar
    43   25   53 1
    44   26   54 1
    45   27   28 1
    46   27   55 1
    47   27   56 1
    48   28   29 1
    49   28   57 1
    50   28   58 1
    51   29   30 1
    52   29   59 1
    53   29   67 1
    54   30   31 1
    55   30   60 1
    56   30   61 1
    57   31   32 1
    58   31   33 1
    59   31   39 1
    60   33   38 ar
    61   33   34 ar
    62   34   35 ar
    63   34   62 1
    64   35   36 ar
    65   35   63 1
    66   36   37 ar
    67   36   64 1
    68   37   38 ar
    69   38   65 1
    70   39   66 1
@<TRIPOS>MOLECULE
CHEMBL1203987
   64    66     0     0     0
SMALL
USER_CHARGES

@<TRIPOS>ATOM
      1 C1          2.9019    4.2042   -0.5105 C.ar      1 <0>        -0.1152
      2 C2          4.2289    4.0500   -0.8660 C.ar      1 <0>        -0.1165
      3 C3          4.8313    2.8098   -0.7672 C.ar      1 <0>        -0.1114
      4 C4          4.1069    1.7238   -0.3125 C.ar      1 <0>        -0.0895
      5 C5          2.7803    1.8781    0.0439 C.ar      1 <0>        -0.1116
      6 C6          2.1774    3.1180   -0.0562 C.ar      1 <0>        -0.1167
      7 C7          4.7634    0.3715   -0.2057 C.3       1 <0>        -0.0920
      8 C8          5.3846    0.2144    1.1837 C.3       1 <0>         0.1251
      9 N1          6.0228   -1.1002    1.2875 N.pl3     1 <0>        -0.6722
     10 C9          6.6392   -1.4617    2.4302 C.2       1 <0>         0.5523
     11 S1          6.6764   -0.3847    3.7604 S.2       1 <0>        -0.6041
     12 N2          7.2263   -2.6711    2.5257 N.pl3     1 <0>        -0.6416
     13 C10         7.9419   -3.0122    3.6783 C.ar      1 <0>         0.1443
     14 C11         7.4076   -2.7483    4.9327 C.ar      1 <0>        -0.0642
     15 C12         8.1164   -3.0867    6.0687 C.ar      1 <0>        -0.1026
     16 C13         9.3571   -3.6873    5.9580 C.ar      1 <0>        -0.1041
     17 C14         9.8920   -3.9514    4.7105 C.ar      1 <0>        -0.1048
     18 C15         9.1857   -3.6207    3.5706 C.ar      1 <0>        -0.1196
     19 C16        10.1282   -4.0543    7.1997 C.3       1 <0>        -0.1006
     20 C17         9.7611   -5.4770    7.6261 C.3       1 <0>        -0.0066
     21 N3         10.5128   -5.8348    8.8365 N.4       1 <0>        -0.5040
     22 C18        10.1603   -7.2008    9.2459 C.3       1 <0>        -0.0414
     23 C19        10.9432   -7.5734   10.5066 C.3       1 <0>         0.0854
     24 H1         10.6936   -6.8781   11.3080 H         1 <0>         0.1361
     25 C20        10.5761   -8.9962   10.9330 C.3       1 <0>         0.0297
     26 O1         11.2171   -9.3022   12.1730 O.3       1 <0>        -0.3027
     27 C21        10.9936  -10.5370   12.6948 C.ar      1 <0>         0.1166
     28 C22        10.1789  -11.4376   12.0243 C.ar      1 <0>        -0.2095
     29 C23         9.9537  -12.6923   12.5566 C.ar      1 <0>        -0.0802
     30 C24        10.5392  -13.0507   13.7568 C.ar      1 <0>        -0.1475
     31 C25        11.3512  -12.1547   14.4273 C.ar      1 <0>        -0.0765
     32 C26        11.5845  -10.9009   13.8961 C.ar      1 <0>        -0.1445
     33 O2         12.3444   -7.5042   10.2350 O.3       1 <0>        -0.5433
     34 H2          2.4325    5.1741   -0.5834 H         1 <0>         0.1247
     35 H3          4.7948    4.8985   -1.2213 H         1 <0>         0.1250
     36 H4          5.8678    2.6892   -1.0457 H         1 <0>         0.1219
     37 H5          2.2142    1.0296    0.3989 H         1 <0>         0.1218
     38 H6          1.1408    3.2385    0.2219 H         1 <0>         0.1249
     39 H7          4.0172   -0.4079   -0.3603 H         1 <0>         0.0809
     40 H8          5.5419    0.2847   -0.9637 H         1 <0>         0.0810
     41 H9          6.1308    0.9937    1.3383 H         1 <0>         0.0945
     42 H10         4.6061    0.3012    1.9416 H         1 <0>         0.0945
     43 H11         6.0017   -1.7104    0.5337 H         1 <0>         0.4012
     44 H12         7.1527   -3.3050    1.7952 H         1 <0>         0.4094
     45 H13         6.4390   -2.2786    5.0198 H         1 <0>         0.1538
     46 H14         7.7015   -2.8817    7.0445 H         1 <0>         0.1297
     47 H15        10.8612   -4.4206    4.6274 H         1 <0>         0.1284
     48 H16         9.6021   -3.8310    2.5966 H         1 <0>         0.1294
     49 H17        11.1971   -4.0014    6.9925 H         1 <0>         0.0968
     50 H18         9.8787   -3.3590    8.0012 H         1 <0>         0.0983
     51 H19         8.6923   -5.5299    7.8333 H         1 <0>         0.1352
     52 H20        10.0107   -6.1724    6.8247 H         1 <0>         0.1335
     53 H21        11.5022   -5.7859    8.6447 H         1 <0>         0.4334
     54 H22         9.0915   -7.2537    9.4531 H         1 <0>         0.1472
     55 H23        10.4099   -7.8962    8.4445 H         1 <0>         0.1394
     56 H24         9.4955   -9.0718   11.0543 H         1 <0>         0.0813
     57 H25        10.9062   -9.7009   10.1697 H         1 <0>         0.0761
     58 H26         9.7207  -11.1580   11.0871 H         1 <0>         0.1233
     59 H27         9.3195  -13.3939   12.0350 H         1 <0>         0.1284
     60 H28        10.3616  -14.0319   14.1715 H         1 <0>         0.1296
     61 H29        11.8071  -12.4368   15.3648 H         1 <0>         0.1352
     62 H30        12.2224  -10.2030   14.4179 H         1 <0>         0.1333
     63 H31        12.6384   -8.0980    9.5306 H         1 <0>         0.3898
     64 H32        10.2818   -5.1911    9.5784 H         1 <0>         0.4316
@<TRIPOS>BOND
     1    1    6 ar
     2    1    2 ar
     3    1   34 1
     4    2    3 ar
     5    2   35 1
     6    3    4 ar
     7    3   36 1
     8    4    5 ar
     9    4    7 1
    10    5    6 ar
    11    5   37 1
    12    6   38 1
    13    7    8 1
    14    7   39 1
    15    7   40 1
    16    8    9 1
    17    8   41 1
    18    8   42 1
    19    9   10 1
    20    9   43 1
    21   10   11 2
    22   10   12 1
    23   12   13 1
    24   12   44 1
    25   13   18 ar
    26   13   14 ar
    27   14   15 ar
    28   14   45 1
    29   15   16 ar
    30   15   46 1
    31   16   17 ar
    32   16   19 1
    33   17   18 ar
    34   17   47 1
    35   18   48 1
    36   19   20 1
    37   19   49 1
    38   19   50 1
    39   20   21 1
    40   20   51 1
    41   20   52 1
    42   21   22 1
    43   21   53 1
    44   21   64 1
    45   22   23 1
    46   22   54 1
    47   22   55 1
    48   23   24 1
    49   23   25 1
    50   23   33 1
    51   25   26 1
    52   25   56 1
    53   25   57 1
    54   26   27 1
    55   27   32 ar
    56   27   28 ar
    57   28   29 ar
    58   28   58 1
    59   29   30 ar
    60   29   59 1
    61   30   31 ar
    62   30   60 1
    63   31   32 ar
    64   31   61 1
    65   32   62 1
    66   33   63 1
@<TRIPOS>MOLECULE
CHEMBL1203988
   64    66     0     0     0
SMALL
USER_CHARGES

@<TRIPOS>ATOM
      1 C1          0.3198    1.5592   -1.6464 C.ar      1 <0>        -0.1476
      2 C2          1.4958    2.2399   -1.3908 C.ar      1 <0>        -0.0767
      3 C3          2.6599    1.5399   -1.1394 C.ar      1 <0>        -0.1447
      4 C4          2.6482    0.1526   -1.1430 C.ar      1 <0>         0.1166
      5 C5          1.4668   -0.5281   -1.3992 C.ar      1 <0>        -0.2093
      6 C6          0.3055    0.1766   -1.6506 C.ar      1 <0>        -0.0799
      7 O1          3.7922   -0.5384   -0.8964 O.3       1 <0>        -0.3029
      8 C7          3.7057   -1.9646   -0.9162 C.3       1 <0>         0.0294
      9 C8          5.0820   -2.5632   -0.6193 C.3       1 <0>         0.0860
     10 H1          5.8120   -2.1622   -1.3225 H         1 <0>         0.1356
     11 C9          5.0181   -4.0851   -0.7629 C.3       1 <0>        -0.0419
     12 N1          6.3396   -4.6598   -0.4778 N.4       1 <0>        -0.5034
     13 C10         6.2782   -6.1210   -0.6158 C.3       1 <0>        -0.0078
     14 C11         7.6545   -6.7196   -0.3188 C.3       1 <0>        -0.0989
     15 C12         7.5915   -8.2187   -0.4603 C.ar      1 <0>        -0.1072
     16 C13         7.2651   -9.0016    0.6318 C.ar      1 <0>        -0.0990
     17 C14         7.2065  -10.3757    0.5054 C.ar      1 <0>        -0.0684
     18 C15         7.4759  -10.9709   -0.7201 C.ar      1 <0>         0.1520
     19 C16         7.8034  -10.1817   -1.8150 C.ar      1 <0>        -0.1226
     20 C17         7.8548   -8.8079   -1.6833 C.ar      1 <0>        -0.1009
     21 N2          7.4178  -12.3624   -0.8513 N.pl3     1 <0>        -0.6421
     22 C18         6.4201  -13.0535   -0.2654 C.2       1 <0>         0.5571
     23 S1          5.1469  -12.2199    0.5189 S.2       1 <0>        -0.6119
     24 N3          6.4246  -14.4009   -0.2968 N.pl3     1 <0>        -0.6679
     25 C19         5.3400  -15.1521    0.3401 C.3       1 <0>         0.1408
     26 C20         5.6493  -15.3320    1.8277 C.3       1 <0>        -0.1266
     27 C21         4.5166  -16.1165    2.4929 C.3       1 <0>        -0.1148
     28 C22         4.3885  -17.4890    1.8290 C.3       1 <0>        -0.1255
     29 C23         4.0792  -17.3092    0.3414 C.3       1 <0>        -0.1149
     30 C24         5.2119  -16.5246   -0.3238 C.3       1 <0>        -0.1285
     31 O2          5.4703   -2.2265    0.7141 O.3       1 <0>        -0.5438
     32 H2         -0.5901    2.1083   -1.8386 H         1 <0>         0.1295
     33 H3          1.5044    3.3199   -1.3881 H         1 <0>         0.1351
     34 H4          3.5784    2.0721   -0.9405 H         1 <0>         0.1331
     35 H5          1.4552   -1.6080   -1.4030 H         1 <0>         0.1236
     36 H6         -0.6144   -0.3529   -1.8502 H         1 <0>         0.1285
     37 H7          2.9944   -2.2960   -0.1596 H         1 <0>         0.0766
     38 H8          3.3703   -2.2947   -1.8994 H         1 <0>         0.0813
     39 H9          4.2881   -4.4861   -0.0597 H         1 <0>         0.1404
     40 H10         4.7219   -4.3419   -1.7800 H         1 <0>         0.1470
     41 H11         7.0153   -4.2887   -1.1288 H         1 <0>         0.4303
     42 H12         5.5482   -6.5220    0.0875 H         1 <0>         0.1358
     43 H13         5.9820   -6.3779   -1.6328 H         1 <0>         0.1347
     44 H14         8.3845   -6.3187   -1.0221 H         1 <0>         0.0963
     45 H15         7.9507   -6.4628    0.6982 H         1 <0>         0.0974
     46 H16         7.0561   -8.5381    1.5846 H         1 <0>         0.1295
     47 H17         6.9519  -10.9866    1.3588 H         1 <0>         0.1482
     48 H18         8.0137  -10.6416   -2.7692 H         1 <0>         0.1298
     49 H19         8.1051   -8.1933   -2.5354 H         1 <0>         0.1288
     50 H20         8.0957  -12.8299   -1.3640 H         1 <0>         0.4100
     51 H21         7.1459  -14.8733   -0.7412 H         1 <0>         0.4004
     52 H22         4.4040  -14.6051    0.2272 H         1 <0>         0.1190
     53 H23         6.5853  -15.8790    1.9406 H         1 <0>         0.0609
     54 H24         5.7406  -14.3542    2.3006 H         1 <0>         0.0788
     55 H25         4.7369  -16.2447    3.5526 H         1 <0>         0.0691
     56 H26         3.5806  -15.5695    2.3799 H         1 <0>         0.0696
     57 H27         5.3245  -18.0361    1.9420 H         1 <0>         0.0631
     58 H28         3.5816  -18.0479    2.3029 H         1 <0>         0.0689
     59 H29         3.9880  -18.2870   -0.1315 H         1 <0>         0.0720
     60 H30         3.1432  -16.7621    0.2285 H         1 <0>         0.0693
     61 H31         4.9916  -16.3965   -1.3835 H         1 <0>         0.0700
     62 H32         6.1479  -17.0717   -0.2108 H         1 <0>         0.0690
     63 H33         4.8649   -2.5521    1.3942 H         1 <0>         0.3904
     64 H34         6.6137   -4.4221    0.4636 H         1 <0>         0.4334
@<TRIPOS>BOND
     1    1    6 ar
     2    1    2 ar
     3    1   32 1
     4    2    3 ar
     5    2   33 1
     6    3    4 ar
     7    3   34 1
     8    4    5 ar
     9    4    7 1
    10    5    6 ar
    11    5   35 1
    12    6   36 1
    13    7    8 1
    14    8    9 1
    15    8   37 1
    16    8   38 1
    17    9   10 1
    18    9   11 1
    19    9   31 1
    20   11   12 1
    21   11   39 1
    22   11   40 1
    23   12   13 1
    24   12   41 1
    25   12   64 1
    26   13   14 1
    27   13   42 1
    28   13   43 1
    29   14   15 1
    30   14   44 1
    31   14   45 1
    32   15   20 ar
    33   15   16 ar
    34   16   17 ar
    35   16   46 1
    36   17   18 ar
    37   17   47 1
    38   18   19 ar
    39   18   21 1
    40   19   20 ar
    41   19   48 1
    42   20   49 1
    43   21   22 1
    44   21   50 1
    45   22   23 2
    46   22   24 1
    47   24   25 1
    48   24   51 1
    49   25   30 1
    50   25   26 1
    51   25   52 1
    52   26   27 1
    53   26   53 1
    54   26   54 1
    55   27   28 1
    56   27   55 1
    57   27   56 1
    58   28   29 1
    59   28   57 1
    60   28   58 1
    61   29   30 1
    62   29   59 1
    63   29   60 1
    64   30   61 1
    65   30   62 1
    66   31   63 1
@<TRIPOS>MOLECULE
CHEMBL1083669
   52    53     0     0     0
SMALL
USER_CHARGES

@<TRIPOS>ATOM
      1 C1         -0.0178    1.4648    0.0101 C.3       1 <0>        -0.0509
      2 N1          0.0021   -0.0041    0.0020 N.4       1 <0>        -0.3901
      3 C2         -1.3756   -0.5106    0.0035 C.3       1 <0>        -0.0026
      4 C3         -1.3615   -2.0381   -0.0867 C.3       1 <0>        -0.1716
      5 C4         -0.6051   -2.6081    1.1167 C.3       1 <0>         0.0140
      6 C5          0.8066   -2.0155    1.1472 C.3       1 <0>        -0.1734
      7 C6          0.7122   -0.4888    1.1916 C.3       1 <0>        -0.0026
      8 N2         -0.5218   -4.0698    0.9971 N.4       1 <0>        -0.5005
      9 C7          0.0973   -4.6257    2.2078 C.3       1 <0>        -0.0475
     10 C8          0.1840   -6.1481    2.0832 C.3       1 <0>         0.0858
     11 C9          0.7130   -6.7376    3.3922 C.3       1 <0>         0.0294
     12 O1          0.6844   -8.1644    3.3180 O.3       1 <0>        -0.2969
     13 C10         1.1247   -8.8478    4.4070 C.ar      1 <0>         0.1145
     14 C11         1.5696   -8.1593    5.5265 C.ar      1 <0>        -0.2066
     15 C12         2.0161   -8.8562    6.6323 C.ar      1 <0>        -0.0843
     16 C13         2.0199  -10.2390    6.6243 C.ar      1 <0>        -0.1385
     17 C14         1.5776  -10.9274    5.5100 C.ar      1 <0>        -0.0740
     18 C15         1.1246  -10.2349    4.4036 C.ar      1 <0>        -0.0965
     19 C16         0.6367  -10.9860    3.1916 C.3       1 <0>        -0.0469
     20 C17         1.7636  -11.1277    2.2011 C.2       1 <0>        -0.1537
     21 C18         2.1062  -12.3142    1.7641 C.2       1 <0>        -0.1828
     22 O2          1.0700   -6.4889    1.0150 O.3       1 <0>        -0.5397
     23 H1          1.0047    1.8421    0.0024 H         1 <0>         0.1327
     24 H2         -0.5450    1.8259   -0.8730 H         1 <0>         0.1331
     25 H3         -0.5280    1.8163    0.9069 H         1 <0>         0.1283
     26 H4         -1.8732   -0.2060    0.9241 H         1 <0>         0.1425
     27 H5         -1.9135   -0.1015   -0.8518 H         1 <0>         0.1537
     28 H6         -2.3852   -2.4123   -0.0837 H         1 <0>         0.1392
     29 H7         -0.8642   -2.3438   -1.0072 H         1 <0>         0.1144
     30 H8         -1.1305   -2.3457    2.0350 H         1 <0>         0.1583
     31 H9          1.3327   -2.3735    2.0321 H         1 <0>         0.1352
     32 H10         1.3489   -2.3207    0.2523 H         1 <0>         0.1147
     33 H11         1.7157   -0.0637    1.2136 H         1 <0>         0.1529
     34 H12         0.1701   -0.1847    2.0870 H         1 <0>         0.1424
     35 H13        -1.4493   -4.4518    0.8879 H         1 <0>         0.4409
     36 H14         1.0992   -4.2131    2.3257 H         1 <0>         0.1416
     37 H15        -0.5072   -4.3661    3.0769 H         1 <0>         0.1522
     38 H16        -0.8067   -6.5529    1.8766 H         1 <0>         0.1380
     39 H17         1.7376   -6.4027    3.5537 H         1 <0>         0.0754
     40 H18         0.0870   -6.4043    4.2200 H         1 <0>         0.0802
     41 H19         1.5671   -7.0793    5.5330 H         1 <0>         0.1209
     42 H20         2.3628   -8.3206    7.5037 H         1 <0>         0.1290
     43 H21         2.3695  -10.7821    7.4899 H         1 <0>         0.1320
     44 H22         1.5819  -12.0074    5.5061 H         1 <0>         0.1358
     45 H23         0.2905  -11.9750    3.4920 H         1 <0>         0.0797
     46 H24        -0.1851  -10.4378    2.7309 H         1 <0>         0.0813
     47 H25         2.2887  -10.2511    1.8515 H         1 <0>         0.1044
     48 H26         1.5811  -13.1908    2.1137 H         1 <0>         0.0999
     49 H27         2.9138  -12.4158    1.0543 H         1 <0>         0.1003
     50 H28         1.9719   -6.1604    1.1320 H         1 <0>         0.3900
     51 H29         0.4767   -0.3284   -0.8272 H         1 <0>         0.4296
     52 H30         0.0377   -4.3101    0.1926 H         1 <0>         0.4367
@<TRIPOS>BOND
     1    1    2 1
     2    1   23 1
     3    1   24 1
     4    1   25 1
     5    2    7 1
     6    2    3 1
     7    2   51 1
     8    3    4 1
     9    3   26 1
    10    3   27 1
    11    4    5 1
    12    4   28 1
    13    4   29 1
    14    5    6 1
    15    5    8 1
    16    5   30 1
    17    6    7 1
    18    6   31 1
    19    6   32 1
    20    7   33 1
    21    7   34 1
    22    8    9 1
    23    8   35 1
    24    8   52 1
    25    9   10 1
    26    9   36 1
    27    9   37 1
    28   10   11 1
    29   10   22 1
    30   10   38 1
    31   11   12 1
    32   11   39 1
    33   11   40 1
    34   12   13 1
    35   13   18 ar
    36   13   14 ar
    37   14   15 ar
    38   14   41 1
    39   15   16 ar
    40   15   42 1
    41   16   17 ar
    42   16   43 1
    43   17   18 ar
    44   17   44 1
    45   18   19 1
    46   19   20 1
    47   19   45 1
    48   19   46 1
    49   20   21 2
    50   20   47 1
    51   21   48 1
    52   21   49 1
    53   22   50 1
@<TRIPOS>MOLECULE
CHEMBL1083669
   51    52     0     0     0
SMALL
USER_CHARGES

@<TRIPOS>ATOM
      1 C1         -0.0178    1.4648    0.0101 C.3       1 <0>         0.0207
      2 N1          0.0021   -0.0041    0.0020 N.3       1 <0>        -0.5459
      3 C2         -1.3588   -0.5483   -0.0886 C.3       1 <0>         0.0542
      4 C3         -1.2921   -2.0696   -0.2410 C.3       1 <0>        -0.1382
      5 C4         -0.5626   -2.6671    0.9654 C.3       1 <0>         0.0231
      6 C5          0.8343   -2.0480    1.0652 C.3       1 <0>        -0.1381
      7 C6          0.7059   -0.5273    1.1798 C.3       1 <0>         0.0540
      8 N2         -0.4440   -4.1215    0.7964 N.4       1 <0>        -0.5004
      9 C7          0.1478   -4.7084    2.0061 C.3       1 <0>        -0.0452
     10 C8          0.2713   -6.2232    1.8302 C.3       1 <0>         0.0876
     11 C9          0.7706   -6.8490    3.1340 C.3       1 <0>         0.0293
     12 O1          0.7752   -8.2725    3.0079 O.3       1 <0>        -0.2972
     13 C10         1.1950   -8.9859    4.0857 C.ar      1 <0>         0.1194
     14 C11         1.5889   -8.3296    5.2430 C.ar      1 <0>        -0.2066
     15 C12         2.0146   -9.0571    6.3372 C.ar      1 <0>        -0.0839
     16 C13         2.0486  -10.4383    6.2800 C.ar      1 <0>        -0.1432
     17 C14         1.6571  -11.0946    5.1280 C.ar      1 <0>        -0.0755
     18 C15         1.2249  -10.3717    4.0327 C.ar      1 <0>        -0.0997
     19 C16         0.7924  -11.0880    2.7793 C.3       1 <0>        -0.0468
     20 C17         1.9532  -11.1705    1.8219 C.2       1 <0>        -0.1490
     21 C18         2.3352  -12.3331    1.3543 C.2       1 <0>        -0.1878
     22 O2          1.1981   -6.5067    0.7801 O.3       1 <0>        -0.5415
     23 H1          1.0047    1.8421    0.0024 H         1 <0>         0.0783
     24 H2         -0.5450    1.8259   -0.8730 H         1 <0>         0.0783
     25 H3         -0.5280    1.8163    0.9069 H         1 <0>         0.0343
     26 H4         -1.9111   -0.2980    0.8172 H         1 <0>         0.0471
     27 H5         -1.8650   -0.1186   -0.9529 H         1 <0>         0.0990
     28 H6         -2.3027   -2.4749   -0.2925 H         1 <0>         0.0951
     29 H7         -0.7518   -2.3205   -1.1539 H         1 <0>         0.0983
     30 H8         -1.1233   -2.4496    1.8745 H         1 <0>         0.1377
     31 H9          1.3429   -2.4377    1.9470 H         1 <0>         0.0908
     32 H10         1.4080   -2.2985    0.1729 H         1 <0>         0.0983
     33 H11         1.6993   -0.0823    1.2367 H         1 <0>         0.0979
     34 H12         0.1439   -0.2771    2.0796 H         1 <0>         0.0468
     35 H13        -1.3591   -4.5181    0.6433 H         1 <0>         0.4305
     36 H14         1.1363   -4.2800    2.1715 H         1 <0>         0.1404
     37 H15        -0.4897   -4.4930    2.8637 H         1 <0>         0.1455
     38 H16        -0.7034   -6.6402    1.5769 H         1 <0>         0.1344
     39 H17         1.7821   -6.4993    3.3408 H         1 <0>         0.0759
     40 H18         0.1114   -6.5588    3.9521 H         1 <0>         0.0800
     41 H19         1.5629   -7.2509    5.2881 H         1 <0>         0.1232
     42 H20         2.3217   -8.5467    7.2382 H         1 <0>         0.1279
     43 H21         2.3818  -11.0053    7.1367 H         1 <0>         0.1295
     44 H22         1.6848  -12.1734    5.0857 H         1 <0>         0.1334
     45 H23         0.4581  -12.0940    3.0327 H         1 <0>         0.0780
     46 H24        -0.0259  -10.5402    2.3119 H         1 <0>         0.0827
     47 H25         2.4703  -10.2713    1.5213 H         1 <0>         0.1061
     48 H26         3.1671  -12.3923    0.6681 H         1 <0>         0.0994
     49 H27         1.8181  -13.2324    1.6549 H         1 <0>         0.0983
     50 H28         2.0885   -6.1643    0.9383 H         1 <0>         0.3899
     51 H29         0.1461   -4.3209    0.0026 H         1 <0>         0.4332
@<TRIPOS>BOND
     1    1    2 1
     2    1   23 1
     3    1   24 1
     4    1   25 1
     5    2    7 1
     6    2    3 1
     7    3    4 1
     8    3   26 1
     9    3   27 1
    10    4    5 1
    11    4   28 1
    12    4   29 1
    13    5    6 1
    14    5    8 1
    15    5   30 1
    16    6    7 1
    17    6   31 1
    18    6   32 1
    19    7   33 1
    20    7   34 1
    21    8    9 1
    22    8   35 1
    23    8   51 1
    24    9   10 1
    25    9   36 1
    26    9   37 1
    27   10   11 1
    28   10   22 1
    29   10   38 1
    30   11   12 1
    31   11   39 1
    32   11   40 1
    33   12   13 1
    34   13   18 ar
    35   13   14 ar
    36   14   15 ar
    37   14   41 1
    38   15   16 ar
    39   15   42 1
    40   16   17 ar
    41   16   43 1
    42   17   18 ar
    43   17   44 1
    44   18   19 1
    45   19   20 1
    46   19   45 1
    47   19   46 1
    48   20   21 2
    49   20   47 1
    50   21   48 1
    51   21   49 1
    52   22   50 1
@<TRIPOS>MOLECULE
CHEMBL1083669
   52    53     0     0     0
SMALL
USER_CHARGES

@<TRIPOS>ATOM
      1 C1         -0.0178    1.4648    0.0101 C.3       1 <0>        -0.0509
      2 N1          0.0021   -0.0041    0.0020 N.4       1 <0>        -0.3901
      3 C2         -1.3756   -0.5106    0.0035 C.3       1 <0>        -0.0025
      4 C3         -1.3615   -2.0381   -0.0867 C.3       1 <0>        -0.1714
      5 C4         -0.6051   -2.6081    1.1167 C.3       1 <0>         0.0143
      6 C5          0.8066   -2.0155    1.1472 C.3       1 <0>        -0.1738
      7 C6          0.7122   -0.4888    1.1916 C.3       1 <0>        -0.0026
      8 N2         -0.5218   -4.0698    0.9971 N.4       1 <0>        -0.4998
      9 C7          0.0973   -4.6257    2.2078 C.3       1 <0>        -0.0480
     10 C8          0.1840   -6.1481    2.0832 C.3       1 <0>         0.0862
     11 C9          0.8288   -6.7271    3.3441 C.3       1 <0>         0.0292
     12 O1          1.0163   -8.1342    3.1802 O.3       1 <0>        -0.2968
     13 C10         1.5823   -8.8062    4.2170 C.ar      1 <0>         0.1145
     14 C11         1.9445   -8.1261    5.3709 C.ar      1 <0>        -0.2066
     15 C12         2.5192   -8.8114    6.4235 C.ar      1 <0>        -0.0843
     16 C13         2.7336  -10.1742    6.3279 C.ar      1 <0>        -0.1385
     17 C14         2.3741  -10.8541    5.1791 C.ar      1 <0>        -0.0741
     18 C15         1.7936  -10.1741    4.1257 C.ar      1 <0>        -0.0964
     19 C16         1.3962  -10.9168    2.8761 C.3       1 <0>        -0.0481
     20 C17         2.5068  -10.8237    1.8617 C.2       1 <0>        -0.1545
     21 C18         3.0154  -11.9149    1.3453 C.2       1 <0>        -0.1819
     22 O2         -1.1296   -6.6891    1.9285 O.3       1 <0>        -0.5406
     23 H1          1.0047    1.8421    0.0024 H         1 <0>         0.1327
     24 H2         -0.5450    1.8259   -0.8730 H         1 <0>         0.1331
     25 H3         -0.5280    1.8163    0.9069 H         1 <0>         0.1283
     26 H4         -1.8732   -0.2060    0.9241 H         1 <0>         0.1424
     27 H5         -1.9135   -0.1015   -0.8518 H         1 <0>         0.1537
     28 H6         -2.3852   -2.4123   -0.0837 H         1 <0>         0.1392
     29 H7         -0.8642   -2.3438   -1.0072 H         1 <0>         0.1143
     30 H8         -1.1305   -2.3457    2.0350 H         1 <0>         0.1577
     31 H9          1.3327   -2.3735    2.0321 H         1 <0>         0.1359
     32 H10         1.3489   -2.3207    0.2523 H         1 <0>         0.1149
     33 H11         1.7157   -0.0637    1.2136 H         1 <0>         0.1530
     34 H12         0.1701   -0.1847    2.0870 H         1 <0>         0.1424
     35 H13        -1.4493   -4.4518    0.8879 H         1 <0>         0.4434
     36 H14         1.0992   -4.2131    2.3257 H         1 <0>         0.1481
     37 H15        -0.5072   -4.3661    3.0769 H         1 <0>         0.1455
     38 H16         0.7885   -6.4077    1.2141 H         1 <0>         0.1372
     39 H17         1.7940   -6.2490    3.5110 H         1 <0>         0.0793
     40 H18         0.1799   -6.5444    4.2007 H         1 <0>         0.0762
     41 H19         1.7775   -7.0617    5.4459 H         1 <0>         0.1209
     42 H20         2.8016   -8.2825    7.3217 H         1 <0>         0.1290
     43 H21         3.1831  -10.7083    7.1520 H         1 <0>         0.1319
     44 H22         2.5429  -11.9183    5.1068 H         1 <0>         0.1357
     45 H23         1.2124  -11.9635    3.1186 H         1 <0>         0.0801
     46 H24         0.4893  -10.4747    2.4636 H         1 <0>         0.0833
     47 H25         2.8833   -9.8574    1.5604 H         1 <0>         0.1025
     48 H26         2.6388  -12.8813    1.6466 H         1 <0>         0.1006
     49 H27         3.8113  -11.8482    0.6184 H         1 <0>         0.1002
     50 H28        -1.7236   -6.4966    2.6669 H         1 <0>         0.3920
     51 H29         0.4767   -0.3284   -0.8272 H         1 <0>         0.4296
     52 H30         0.0377   -4.3101    0.1926 H         1 <0>         0.4337
@<TRIPOS>BOND
     1    1    2 1
     2    1   23 1
     3    1   24 1
     4    1   25 1
     5    2    7 1
     6    2    3 1
     7    2   51 1
     8    3    4 1
     9    3   26 1
    10    3   27 1
    11    4    5 1
    12    4   28 1
    13    4   29 1
    14    5    6 1
    15    5    8 1
    16    5   30 1
    17    6    7 1
    18    6   31 1
    19    6   32 1
    20    7   33 1
    21    7   34 1
    22    8    9 1
    23    8   35 1
    24    8   52 1
    25    9   10 1
    26    9   36 1
    27    9   37 1
    28   10   11 1
    29   10   22 1
    30   10   38 1
    31   11   12 1
    32   11   39 1
    33   11   40 1
    34   12   13 1
    35   13   18 ar
    36   13   14 ar
    37   14   15 ar
    38   14   41 1
    39   15   16 ar
    40   15   42 1
    41   16   17 ar
    42   16   43 1
    43   17   18 ar
    44   17   44 1
    45   18   19 1
    46   19   20 1
    47   19   45 1
    48   19   46 1
    49   20   21 2
    50   20   47 1
    51   21   48 1
    52   21   49 1
    53   22   50 1
@<TRIPOS>MOLECULE
CHEMBL1083669
   51    52     0     0     0
SMALL
USER_CHARGES

@<TRIPOS>ATOM
      1 C1         -0.0178    1.4648    0.0101 C.3       1 <0>         0.0207
      2 N1          0.0021   -0.0041    0.0020 N.3       1 <0>        -0.5460
      3 C2         -1.3588   -0.5483   -0.0886 C.3       1 <0>         0.0542
      4 C3         -1.2921   -2.0696   -0.2410 C.3       1 <0>        -0.1380
      5 C4         -0.5626   -2.6671    0.9654 C.3       1 <0>         0.0235
      6 C5          0.8343   -2.0480    1.0652 C.3       1 <0>        -0.1387
      7 C6          0.7059   -0.5273    1.1798 C.3       1 <0>         0.0540
      8 N2         -0.4440   -4.1215    0.7964 N.4       1 <0>        -0.4998
      9 C7          0.1478   -4.7084    2.0061 C.3       1 <0>        -0.0452
     10 C8          0.2713   -6.2232    1.8302 C.3       1 <0>         0.0873
     11 C9          0.8877   -6.8344    3.0901 C.3       1 <0>         0.0294
     12 O1          1.1106   -8.2305    2.8822 O.3       1 <0>        -0.2972
     13 C10         1.6575   -8.9281    3.9124 C.ar      1 <0>         0.1194
     14 C11         1.9678   -8.2832    5.1011 C.ar      1 <0>        -0.2066
     15 C12         2.5231   -8.9945    6.1468 C.ar      1 <0>        -0.0839
     16 C13         2.7698  -10.3483    6.0097 C.ar      1 <0>        -0.1431
     17 C14         2.4620  -10.9930    4.8262 C.ar      1 <0>        -0.0756
     18 C15         1.9011  -10.2871    3.7793 C.ar      1 <0>        -0.0994
     19 C16         1.5599  -10.9919    2.4916 C.3       1 <0>        -0.0478
     20 C17         2.7002  -10.8393    1.5181 C.2       1 <0>        -0.1500
     21 C18         3.2485  -11.9004    0.9801 C.2       1 <0>        -0.1869
     22 O2         -1.0247   -6.7848    1.6133 O.3       1 <0>        -0.5428
     23 H1          1.0047    1.8421    0.0024 H         1 <0>         0.0783
     24 H2         -0.5450    1.8259   -0.8730 H         1 <0>         0.0783
     25 H3         -0.5280    1.8163    0.9069 H         1 <0>         0.0343
     26 H4         -1.9111   -0.2980    0.8172 H         1 <0>         0.0470
     27 H5         -1.8650   -0.1186   -0.9529 H         1 <0>         0.0990
     28 H6         -2.3027   -2.4749   -0.2925 H         1 <0>         0.0951
     29 H7         -0.7518   -2.3205   -1.1539 H         1 <0>         0.0983
     30 H8         -1.1233   -2.4496    1.8745 H         1 <0>         0.1373
     31 H9          1.3429   -2.4377    1.9470 H         1 <0>         0.0916
     32 H10         1.4080   -2.2985    0.1729 H         1 <0>         0.0984
     33 H11         1.6993   -0.0823    1.2367 H         1 <0>         0.0981
     34 H12         0.1439   -0.2771    2.0796 H         1 <0>         0.0468
     35 H13        -1.3591   -4.5181    0.6433 H         1 <0>         0.4334
     36 H14         1.1363   -4.2800    2.1715 H         1 <0>         0.1469
     37 H15        -0.4897   -4.4930    2.8637 H         1 <0>         0.1390
     38 H16         0.9087   -6.4386    0.9726 H         1 <0>         0.1356
     39 H17         1.8365   -6.3431    3.3055 H         1 <0>         0.0805
     40 H18         0.2079   -6.6962    3.9309 H         1 <0>         0.0756
     41 H19         1.7756   -7.2259    5.2085 H         1 <0>         0.1232
     42 H20         2.7651   -8.4930    7.0721 H         1 <0>         0.1278
     43 H21         3.2040  -10.9027    6.8285 H         1 <0>         0.1295
     44 H22         2.6559  -12.0503    4.7215 H         1 <0>         0.1334
     45 H23         1.3910  -12.0502    2.6903 H         1 <0>         0.0783
     46 H24         0.6574  -10.5536    2.0656 H         1 <0>         0.0846
     47 H25         3.0653   -9.8551    1.2641 H         1 <0>         0.1045
     48 H26         4.0656  -11.7910    0.2824 H         1 <0>         0.0994
     49 H27         2.8834  -12.8845    1.2341 H         1 <0>         0.0989
     50 H28        -1.6461   -6.6315    2.3382 H         1 <0>         0.3895
     51 H29         0.1461   -4.3209    0.0026 H         1 <0>         0.4301
@<TRIPOS>BOND
     1    1    2 1
     2    1   23 1
     3    1   24 1
     4    1   25 1
     5    2    7 1
     6    2    3 1
     7    3    4 1
     8    3   26 1
     9    3   27 1
    10    4    5 1
    11    4   28 1
    12    4   29 1
    13    5    6 1
    14    5    8 1
    15    5   30 1
    16    6    7 1
    17    6   31 1
    18    6   32 1
    19    7   33 1
    20    7   34 1
    21    8    9 1
    22    8   35 1
    23    8   51 1
    24    9   10 1
    25    9   36 1
    26    9   37 1
    27   10   11 1
    28   10   22 1
    29   10   38 1
    30   11   12 1
    31   11   39 1
    32   11   40 1
    33   12   13 1
    34   13   18 ar
    35   13   14 ar
    36   14   15 ar
    37   14   41 1
    38   15   16 ar
    39   15   42 1
    40   16   17 ar
    41   16   43 1
    42   17   18 ar
    43   17   44 1
    44   18   19 1
    45   19   20 1
    46   19   45 1
    47   19   46 1
    48   20   21 2
    49   20   47 1
    50   21   48 1
    51   21   49 1
    52   22   50 1
@<TRIPOS>MOLECULE
CHEMBL1085399
   73    74     0     0     0
SMALL
USER_CHARGES

@<TRIPOS>ATOM
      1 C1         -0.0225    1.8097    0.0120 C.3       1 <0>        -0.6372
      2 S1          0.0021   -0.0041    0.0020 S.o2      1 <0>         2.5248
      3 O1          0.8352   -0.4880    1.0465 O.2       1 <0>        -1.0300
      4 O2         -1.3147   -0.5105   -0.1678 O.2       1 <0>        -1.0327
      5 N1          0.7947   -0.4113   -1.3938 N.2       1 <0>        -1.1016
      6 C2          0.9920   -1.7554   -1.7182 C.ar      1 <0>         0.2790
      7 C3          0.5188   -2.7521   -0.8738 C.ar      1 <0>        -0.2500
      8 C4          0.7152   -4.0799   -1.1978 C.ar      1 <0>        -0.0736
      9 C5          1.3824   -4.4182   -2.3611 C.ar      1 <0>        -0.2060
     10 C6          1.8549   -3.4289   -3.2034 C.ar      1 <0>        -0.0610
     11 C7          1.6566   -2.0987   -2.8885 C.ar      1 <0>        -0.1613
     12 C8          2.5822   -3.8022   -4.4694 C.3       1 <0>         0.1130
     13 O3          1.6426   -3.9309   -5.5383 O.3       1 <0>        -0.3707
     14 C9          2.2321   -4.2848   -6.7910 C.3       1 <0>         0.0600
     15 C10         1.1392   -4.3942   -7.8561 C.3       1 <0>         0.0677
     16 O4          0.5481   -3.1103   -8.0658 O.3       1 <0>        -0.3755
     17 C11        -0.4905   -3.1018   -9.0473 C.3       1 <0>         0.0615
     18 C12        -1.0476   -1.6838   -9.1881 C.3       1 <0>        -0.1224
     19 C13        -2.1595   -1.6748  -10.2390 C.3       1 <0>        -0.1162
     20 C14        -2.7167   -0.2568  -10.3798 C.3       1 <0>        -0.1183
     21 C15        -3.8286   -0.2477  -11.4307 C.3       1 <0>        -0.1488
     22 C16        -4.3857    1.1703  -11.5716 C.3       1 <0>        -0.0113
     23 N2         -5.4533    1.1789  -12.5806 N.4       1 <0>        -0.5053
     24 C17        -5.9882    2.5404  -12.7158 C.3       1 <0>        -0.0429
     25 C18        -7.1002    2.5494  -13.7667 C.3       1 <0>         0.1374
     26 H1         -7.8982    1.8746  -13.4570 H         1 <0>         0.1327
     27 C19        -7.6489    3.9461  -13.9053 C.ar      1 <0>        -0.1536
     28 C20        -7.0312    4.8496  -14.7506 C.ar      1 <0>        -0.0898
     29 C21        -7.5320    6.1305  -14.8791 C.ar      1 <0>        -0.1377
     30 C22        -8.6560    6.5102  -14.1596 C.ar      1 <0>         0.1321
     31 C23        -9.2740    5.6018  -13.3128 C.ar      1 <0>        -0.1102
     32 C24        -8.7723    4.3202  -13.1917 C.ar      1 <0>        -0.0620
     33 C25       -10.4950    6.0109  -12.5299 C.3       1 <0>         0.1178
     34 O5        -10.9433    4.9098  -11.7370 O.3       1 <0>        -0.5749
     35 O6         -9.1503    7.7699  -14.2840 O.3       1 <0>        -0.4941
     36 O7         -6.5722    2.1182  -15.0226 O.3       1 <0>        -0.5484
     37 H2          1.0001    2.1870    0.0043 H         1 <0>         0.1149
     38 H3         -0.5497    2.1708   -0.8711 H         1 <0>         0.1131
     39 H4         -0.5327    2.1613    0.9088 H         1 <0>         0.1008
     40 H5         -0.0016   -2.4886    0.0351 H         1 <0>         0.1009
     41 H6          0.3476   -4.8552   -0.5419 H         1 <0>         0.1016
     42 H7          1.5349   -5.4576   -2.6119 H         1 <0>         0.0994
     43 H8          2.0217   -1.3264   -3.5492 H         1 <0>         0.1090
     44 H9          3.3071   -3.0260   -4.7144 H         1 <0>         0.0516
     45 H10         3.1001   -4.7504   -4.3247 H         1 <0>         0.0490
     46 H11         2.9497   -3.5185   -7.0842 H         1 <0>         0.0546
     47 H12         2.7427   -5.2429   -6.6945 H         1 <0>         0.0618
     48 H13         1.5758   -4.7500   -8.7894 H         1 <0>         0.0594
     49 H14         0.3750   -5.0959   -7.5218 H         1 <0>         0.0579
     50 H15        -0.0877   -3.4307  -10.0053 H         1 <0>         0.0432
     51 H16        -1.2885   -3.7766   -8.7377 H         1 <0>         0.0474
     52 H17        -1.4503   -1.3549   -8.2302 H         1 <0>         0.0777
     53 H18        -0.2496   -1.0090   -9.4977 H         1 <0>         0.0721
     54 H19        -1.7568   -2.0037  -11.1970 H         1 <0>         0.0659
     55 H20        -2.9576   -2.3496   -9.9294 H         1 <0>         0.0683
     56 H21        -3.1194    0.0721   -9.4219 H         1 <0>         0.0783
     57 H22        -1.9186    0.4180  -10.6894 H         1 <0>         0.0755
     58 H23        -3.4258   -0.5767  -12.3887 H         1 <0>         0.0868
     59 H24        -4.6266   -0.9226  -11.1211 H         1 <0>         0.0883
     60 H25        -4.7885    1.4992  -10.6136 H         1 <0>         0.1338
     61 H26        -3.5877    1.8451  -11.8812 H         1 <0>         0.1317
     62 H27        -5.0805    0.8745  -13.4673 H         1 <0>         0.4305
     63 H28        -6.3910    2.8693  -11.7578 H         1 <0>         0.1454
     64 H29        -5.1902    3.2152  -13.0254 H         1 <0>         0.1364
     65 H30        -6.1564    4.5537  -15.3104 H         1 <0>         0.1277
     66 H31        -7.0488    6.8360  -15.5388 H         1 <0>         0.1397
     67 H32        -9.2555    3.6114  -12.5356 H         1 <0>         0.1424
     68 H33       -10.2455    6.8492  -11.8794 H         1 <0>         0.0705
     69 H34       -11.2856    6.3082  -13.2188 H         1 <0>         0.0644
     70 H35       -11.7279    5.1017  -11.2052 H         1 <0>         0.3929
     71 H36        -9.8095    7.8663  -14.9849 H         1 <0>         0.3998
     72 H37        -5.8562    2.6739  -15.3599 H         1 <0>         0.3874
     73 H38        -6.1921    0.5543  -12.2940 H         1 <0>         0.4293
@<TRIPOS>BOND
     1    1    2 1
     2    1   37 1
     3    1   38 1
     4    1   39 1
     5    2    3 2
     6    2    4 2
     7    2    5 1
     8    5    6 1
     9    6   11 ar
    10    6    7 ar
    11    7    8 ar
    12    7   40 1
    13    8    9 ar
    14    8   41 1
    15    9   10 ar
    16    9   42 1
    17   10   11 ar
    18   10   12 1
    19   11   43 1
    20   12   13 1
    21   12   44 1
    22   12   45 1
    23   13   14 1
    24   14   15 1
    25   14   46 1
    26   14   47 1
    27   15   16 1
    28   15   48 1
    29   15   49 1
    30   16   17 1
    31   17   18 1
    32   17   50 1
    33   17   51 1
    34   18   19 1
    35   18   52 1
    36   18   53 1
    37   19   20 1
    38   19   54 1
    39   19   55 1
    40   20   21 1
    41   20   56 1
    42   20   57 1
    43   21   22 1
    44   21   58 1
    45   21   59 1
    46   22   23 1
    47   22   60 1
    48   22   61 1
    49   23   24 1
    50   23   62 1
    51   23   73 1
    52   24   25 1
    53   24   63 1
    54   24   64 1
    55   25   26 1
    56   25   27 1
    57   25   36 1
    58   27   32 ar
    59   27   28 ar
    60   28   29 ar
    61   28   65 1
    62   29   30 ar
    63   29   66 1
    64   30   31 ar
    65   30   35 1
    66   31   32 ar
    67   31   33 1
    68   32   67 1
    69   33   34 1
    70   33   68 1
    71   33   69 1
    72   34   70 1
    73   35   71 1
    74   36   72 1
@<TRIPOS>MOLECULE
CHEMBL440561
   66    68     0     0     0
SMALL
USER_CHARGES

@<TRIPOS>ATOM
      1 C1         -0.0876    1.4032    0.1680 C.ar      1 <0>        -0.1224
      2 C2          1.0988    2.1127    0.1577 C.ar      1 <0>        -0.1171
      3 C3          2.3062    1.4401    0.1317 C.ar      1 <0>        -0.1181
      4 C4          2.3272    0.0580    0.1163 C.ar      1 <0>        -0.0871
      5 C5          1.1409   -0.6515    0.1275 C.ar      1 <0>        -0.1185
      6 C6         -0.0665    0.0211    0.1521 C.ar      1 <0>        -0.1175
      7 C7          3.6435   -0.6753    0.0869 C.3       1 <0>        -0.0789
      8 C8          4.1124   -0.9391    1.5192 C.3       1 <0>        -0.1109
      9 C9          5.4488   -1.6835    1.4894 C.3       1 <0>        -0.1192
     10 C10         5.9177   -1.9473    2.9216 C.3       1 <0>         0.0577
     11 O1          7.1658   -2.6426    2.8938 O.3       1 <0>        -0.3131
     12 C11         7.7244   -2.9560    4.0924 C.ar      1 <0>         0.1408
     13 C12         7.0815   -2.6065    5.2713 C.ar      1 <0>        -0.1968
     14 C13         7.6511   -2.9265    6.4882 C.ar      1 <0>        -0.0712
     15 C14         8.8611   -3.5946    6.5323 C.ar      1 <0>        -0.1503
     16 C15         9.5039   -3.9435    5.3592 C.ar      1 <0>        -0.0674
     17 C16         8.9355   -3.6307    4.1393 C.ar      1 <0>        -0.1469
     18 C17        10.8226   -4.6711    5.4109 C.3       1 <0>        -0.1006
     19 C18        10.5722   -6.1804    5.4223 C.3       1 <0>        -0.0066
     20 N1         11.8576   -6.8897    5.4727 N.4       1 <0>        -0.5056
     21 C19        11.6172   -8.3388    5.4837 C.3       1 <0>        -0.0421
     22 C20        12.9561   -9.0775    5.5362 C.3       1 <0>         0.1374
     23 H1         13.4936   -8.7915    6.4403 H         1 <0>         0.1339
     24 C21        12.7094  -10.5641    5.5475 C.ar      1 <0>        -0.1344
     25 C22        12.5375  -11.2438    4.3556 C.ar      1 <0>        -0.1040
     26 C23        12.3105  -12.6074    4.3596 C.ar      1 <0>        -0.1194
     27 C24        12.2547  -13.2972    5.5599 C.ar      1 <0>         0.1020
     28 C25        12.4283  -12.6133    6.7609 C.ar      1 <0>         0.1237
     29 C26        12.6613  -11.2458    6.7487 C.ar      1 <0>        -0.0917
     30 N2         12.3729  -13.3056    7.9779 N.am      1 <0>        -0.6780
     31 C27        13.1638  -12.9309    9.0029 C.2       1 <0>         0.4954
     32 O2         13.8641  -11.9459    8.9000 O.2       1 <0>        -0.5353
     33 O3         12.0306  -14.6383    5.5655 O.3       1 <0>        -0.4925
     34 O4         13.7357   -8.7327    4.3893 O.3       1 <0>        -0.5463
     35 H2         -1.0308    1.9287    0.1928 H         1 <0>         0.1227
     36 H3          1.0823    3.1925    0.1697 H         1 <0>         0.1229
     37 H4          3.2330    1.9944    0.1229 H         1 <0>         0.1207
     38 H5          1.1573   -1.7313    0.1152 H         1 <0>         0.1203
     39 H6         -0.9934   -0.5332    0.1605 H         1 <0>         0.1227
     40 H7          3.5193   -1.6240   -0.4353 H         1 <0>         0.0744
     41 H8          4.3856   -0.0690   -0.4325 H         1 <0>         0.0749
     42 H9          4.2366    0.0096    2.0414 H         1 <0>         0.0686
     43 H10         3.3703   -1.5453    2.0386 H         1 <0>         0.0681
     44 H11         5.3246   -2.6322    0.9672 H         1 <0>         0.0761
     45 H12         6.1909   -1.0773    0.9699 H         1 <0>         0.0770
     46 H13         6.0419   -0.9986    3.4438 H         1 <0>         0.0663
     47 H14         5.1756   -2.5536    3.4411 H         1 <0>         0.0656
     48 H15         6.1367   -2.0844    5.2373 H         1 <0>         0.1338
     49 H16         7.1513   -2.6544    7.4061 H         1 <0>         0.1322
     50 H17         9.3048   -3.8440    7.4849 H         1 <0>         0.1263
     51 H18         9.4358   -3.9074    3.2231 H         1 <0>         0.1324
     52 H19        11.4172   -4.4080    4.5361 H         1 <0>         0.0986
     53 H20        11.3601   -4.3851    6.3150 H         1 <0>         0.0994
     54 H21         9.9775   -6.4435    6.2971 H         1 <0>         0.1345
     55 H22        10.0346   -6.4664    4.5182 H         1 <0>         0.1341
     56 H23        12.4081   -6.6462    4.6629 H         1 <0>         0.4323
     57 H24        11.0226   -8.6018    6.3585 H         1 <0>         0.1444
     58 H25        11.0797   -8.6248    4.5796 H         1 <0>         0.1379
     59 H26        12.5803  -10.7077    3.4190 H         1 <0>         0.1289
     60 H27        12.1763  -13.1351    3.4269 H         1 <0>         0.1423
     61 H28        12.8006  -10.7132    7.6779 H         1 <0>         0.1486
     62 H29        11.7654  -14.0545    8.0827 H         1 <0>         0.4225
     63 H30        13.1739  -13.5077    9.9160 H         1 <0>         0.1549
     64 H31        12.8360  -15.1718    5.5240 H         1 <0>         0.3998
     65 H32        13.3178   -8.9589    3.5472 H         1 <0>         0.3878
     66 H33        12.3552   -6.6249    6.3096 H         1 <0>         0.4300
@<TRIPOS>BOND
     1    1    6 ar
     2    1    2 ar
     3    1   35 1
     4    2    3 ar
     5    2   36 1
     6    3    4 ar
     7    3   37 1
     8    4    5 ar
     9    4    7 1
    10    5    6 ar
    11    5   38 1
    12    6   39 1
    13    7    8 1
    14    7   40 1
    15    7   41 1
    16    8    9 1
    17    8   42 1
    18    8   43 1
    19    9   10 1
    20    9   44 1
    21    9   45 1
    22   10   11 1
    23   10   46 1
    24   10   47 1
    25   11   12 1
    26   12   17 ar
    27   12   13 ar
    28   13   14 ar
    29   13   48 1
    30   14   15 ar
    31   14   49 1
    32   15   16 ar
    33   15   50 1
    34   16   17 ar
    35   16   18 1
    36   17   51 1
    37   18   19 1
    38   18   52 1
    39   18   53 1
    40   19   20 1
    41   19   54 1
    42   19   55 1
    43   20   21 1
    44   20   56 1
    45   20   66 1
    46   21   22 1
    47   21   57 1
    48   21   58 1
    49   22   23 1
    50   22   24 1
    51   22   34 1
    52   24   29 ar
    53   24   25 ar
    54   25   26 ar
    55   25   59 1
    56   26   27 ar
    57   26   60 1
    58   27   28 ar
    59   27   33 1
    60   28   29 ar
    61   28   30 1
    62   29   61 1
    63   30   31 am
    64   30   62 1
    65   31   32 2
    66   31   63 1
    67   33   64 1
    68   34   65 1
@<TRIPOS>MOLECULE
CHEMBL12769
   62    65     0     0     0
SMALL
USER_CHARGES

@<TRIPOS>ATOM
      1 C1         -0.0164    1.3571    0.0095 C.ar      1 <0>        -0.1284
      2 C2          1.1699    2.0885    0.0021 C.ar      1 <0>        -0.0879
      3 C3          2.3792    1.4650   -0.0128 C.ar      1 <0>        -0.1040
      4 C4          2.4398    0.0603   -0.0209 C.ar      1 <0>         0.1548
      5 C5          1.2323   -0.6813   -0.0134 C.ar      1 <0>        -0.1290
      6 C6          0.0021   -0.0041    0.0020 C.ar      1 <0>        -0.0800
      7 C7          1.2949   -2.0872   -0.0215 C.ar      1 <0>         0.0543
      8 C8          2.5269   -2.6774   -0.0364 C.ar      1 <0>        -0.6782
      9 C9          3.6752   -1.8891   -0.0432 C.ar      1 <0>         0.2131
     10 N1          3.6131   -0.5795   -0.0351 N.ar      1 <0>        -0.4872
     11 S1          2.6631   -4.4341   -0.0465 S.o2      1 <0>         2.6141
     12 O1          3.9414   -4.7454    0.4904 O.2       1 <0>        -1.0184
     13 O2          1.4582   -4.9381    0.5136 O.2       1 <0>        -1.0242
     14 N2          2.6855   -4.9144   -1.6312 N.2       1 <0>        -1.0816
     15 C10         2.7878   -6.2707   -1.9484 C.ar      1 <0>         0.2964
     16 C11         2.8649   -7.2186   -0.9359 C.ar      1 <0>        -0.2644
     17 C12         2.9655   -8.5590   -1.2531 C.ar      1 <0>        -0.0473
     18 C13         2.9899   -8.9578   -2.5770 C.ar      1 <0>        -0.2349
     19 C14         2.9133   -8.0169   -3.5874 C.ar      1 <0>        -0.0635
     20 C15         2.8068   -6.6753   -3.2772 C.ar      1 <0>        -0.1800
     21 C16         3.1007  -10.4213   -2.9193 C.3       1 <0>        -0.0719
     22 C17         1.6999  -11.0270   -3.0283 C.3       1 <0>        -0.0109
     23 N3          1.8080  -12.4535   -3.3620 N.4       1 <0>        -0.5038
     24 C18         0.4631  -13.0351   -3.4667 C.3       1 <0>        -0.0419
     25 C19         0.5756  -14.5209   -3.8143 C.3       1 <0>         0.0862
     26 H1          1.1342  -15.0356   -3.0325 H         1 <0>         0.1349
     27 C20        -0.8252  -15.1266   -3.9233 C.3       1 <0>         0.0285
     28 O3         -0.7196  -16.5363   -4.1324 O.3       1 <0>        -0.3012
     29 C21        -1.8822  -17.2315   -4.2517 C.ar      1 <0>         0.1123
     30 C22        -3.0978  -16.5682   -4.1745 C.ar      1 <0>        -0.1913
     31 C23        -4.2788  -17.2744   -4.2957 C.ar      1 <0>        -0.1052
     32 C24        -4.2489  -18.6467   -4.4949 C.ar      1 <0>         0.0765
     33 C25        -3.0332  -19.3098   -4.5730 C.ar      1 <0>        -0.1034
     34 C26        -1.8522  -18.6030   -4.4561 C.ar      1 <0>        -0.1279
     35 O4         -5.4115  -19.3420   -4.6133 O.3       1 <0>        -0.4963
     36 O5          1.2566  -14.6680   -5.0619 O.3       1 <0>        -0.5444
     37 H2         -0.9628    1.8771    0.0259 H         1 <0>         0.1298
     38 H3          1.1286    3.1677    0.0079 H         1 <0>         0.1319
     39 H4          3.2890    2.0469   -0.0187 H         1 <0>         0.1379
     40 H5         -0.9239   -0.5599    0.0079 H         1 <0>         0.1336
     41 H6          0.3941   -2.6830   -0.0157 H         1 <0>         0.1532
     42 H7          4.6425   -2.3695   -0.0546 H         1 <0>         0.1729
     43 H8          2.8467   -6.9077    0.0982 H         1 <0>         0.1019
     44 H9          3.0255   -9.2964   -0.4664 H         1 <0>         0.1024
     45 H10         2.9326   -8.3318   -4.6203 H         1 <0>         0.1050
     46 H11         2.7425   -5.9413   -4.0668 H         1 <0>         0.1171
     47 H12         3.6202  -10.5335   -3.8709 H         1 <0>         0.0812
     48 H13         3.6593  -10.9360   -2.1375 H         1 <0>         0.0803
     49 H14         1.1805  -10.9148   -2.0767 H         1 <0>         0.1313
     50 H15         1.1414  -10.5123   -3.8101 H         1 <0>         0.1311
     51 H16         2.2888  -12.5574   -4.2430 H         1 <0>         0.4302
     52 H17        -0.0564  -12.9229   -2.5151 H         1 <0>         0.1455
     53 H18        -0.0955  -12.5204   -4.2485 H         1 <0>         0.1382
     54 H19        -1.3761  -14.9362   -3.0022 H         1 <0>         0.0826
     55 H20        -1.3527  -14.6733   -4.7625 H         1 <0>         0.0770
     56 H21        -3.1211  -15.4997   -4.0194 H         1 <0>         0.1302
     57 H22        -5.2254  -16.7581   -4.2349 H         1 <0>         0.1347
     58 H23        -3.0099  -20.3784   -4.7278 H         1 <0>         0.1401
     59 H24        -0.9055  -19.1188   -4.5207 H         1 <0>         0.1383
     60 H25        -5.7348  -19.4160   -5.5216 H         1 <0>         0.3922
     61 H26         0.8150  -14.2338   -5.8046 H         1 <0>         0.3894
     62 H27         2.3250  -12.9300   -2.6384 H         1 <0>         0.4280
@<TRIPOS>BOND
     1    1    6 ar
     2    1    2 ar
     3    1   37 1
     4    2    3 ar
     5    2   38 1
     6    3    4 ar
     7    3   39 1
     8    4   10 ar
     9    4    5 ar
    10    5    6 ar
    11    5    7 ar
    12    6   40 1
    13    7    8 ar
    14    7   41 1
    15    8    9 ar
    16    8   11 1
    17    9   10 ar
    18    9   42 1
    19   11   12 2
    20   11   13 2
    21   11   14 1
    22   14   15 1
    23   15   20 ar
    24   15   16 ar
    25   16   17 ar
    26   16   43 1
    27   17   18 ar
    28   17   44 1
    29   18   19 ar
    30   18   21 1
    31   19   20 ar
    32   19   45 1
    33   20   46 1
    34   21   22 1
    35   21   47 1
    36   21   48 1
    37   22   23 1
    38   22   49 1
    39   22   50 1
    40   23   24 1
    41   23   51 1
    42   23   62 1
    43   24   25 1
    44   24   52 1
    45   24   53 1
    46   25   26 1
    47   25   27 1
    48   25   36 1
    49   27   28 1
    50   27   54 1
    51   27   55 1
    52   28   29 1
    53   29   34 ar
    54   29   30 ar
    55   30   31 ar
    56   30   56 1
    57   31   32 ar
    58   31   57 1
    59   32   33 ar
    60   32   35 1
    61   33   34 ar
    62   33   58 1
    63   34   59 1
    64   35   60 1
    65   36   61 1
@<TRIPOS>MOLECULE
CHEMBL12769
   63    66     0     0     0
SMALL
USER_CHARGES

@<TRIPOS>ATOM
      1 C1          8.1182   -8.9350    0.4064 C.ar      1 <0>        -0.1176
      2 C2          7.4786  -10.1553    0.1971 C.ar      1 <0>        -0.0774
      3 C3          6.1364  -10.2169   -0.0179 C.ar      1 <0>        -0.1016
      4 C4          5.3768   -9.0337   -0.0302 C.ar      1 <0>         0.1661
      5 C5          6.0294   -7.7940    0.1829 C.ar      1 <0>        -0.1296
      6 C6          7.4164   -7.7685    0.4016 C.ar      1 <0>        -0.0860
      7 C7          5.2675   -6.6108    0.1703 C.ar      1 <0>         0.0674
      8 C8          3.9229   -6.7124   -0.0486 C.ar      1 <0>        -0.7368
      9 C9          3.3441   -7.9631   -0.2512 C.ar      1 <0>         0.2114
     10 N1          4.0570   -9.0634   -0.2384 N.ar      1 <0>        -0.4714
     11 S1          2.9215   -5.2628   -0.0740 S.o2      1 <0>         2.6945
     12 O1          1.6284   -5.6547    0.3656 O.2       1 <0>        -0.9342
     13 O2          3.6689   -4.2416    0.5723 O.2       1 <0>        -0.9420
     14 N2          2.7643   -4.8041   -1.6574 N.pl3     1 <0>        -1.0661
     15 C10         3.8919   -4.4280   -2.3909 C.ar      1 <0>         0.1411
     16 C11         4.4831   -3.1901   -2.1728 C.ar      1 <0>        -0.0999
     17 C12         5.5982   -2.8215   -2.8994 C.ar      1 <0>        -0.0983
     18 C13         6.1260   -3.6831   -3.8435 C.ar      1 <0>        -0.1004
     19 C14         5.5399   -4.9162   -4.0632 C.ar      1 <0>        -0.1006
     20 C15         4.4280   -5.2934   -3.3360 C.ar      1 <0>        -0.1081
     21 C16         7.3424   -3.2771   -4.6352 C.3       1 <0>        -0.1028
     22 C17         8.6049   -3.7232   -3.8950 C.3       1 <0>        -0.0084
     23 N3          9.7906   -3.3274   -4.6667 N.4       1 <0>        -0.5039
     24 C18        11.0028   -3.7557   -3.9560 C.3       1 <0>        -0.0420
     25 C19        12.2377   -3.3436   -4.7597 C.3       1 <0>         0.0854
     26 H1         12.2494   -2.2600   -4.8777 H         1 <0>         0.1367
     27 C20        13.5002   -3.7896   -4.0195 C.3       1 <0>         0.0290
     28 O3         14.6535   -3.3040   -4.7095 O.3       1 <0>        -0.3010
     29 C21        15.8665   -3.6145   -4.1790 C.ar      1 <0>         0.1085
     30 C22        15.9432   -4.3755   -3.0219 C.ar      1 <0>        -0.1913
     31 C23        17.1753   -4.6908   -2.4831 C.ar      1 <0>        -0.1063
     32 C24        18.3359   -4.2469   -3.0993 C.ar      1 <0>         0.0809
     33 C25        18.2593   -3.4867   -4.2568 C.ar      1 <0>        -0.1025
     34 C26        17.0272   -3.1750   -4.7981 C.ar      1 <0>        -0.1257
     35 O4         19.5488   -4.5567   -2.5683 O.3       1 <0>        -0.4956
     36 O5         12.1965   -3.9625   -6.0471 O.3       1 <0>        -0.5430
     37 H2          9.1841   -8.9148    0.5792 H         1 <0>         0.1340
     38 H3          8.0577  -11.0669    0.2052 H         1 <0>         0.1388
     39 H4          5.6564  -11.1709   -0.1788 H         1 <0>         0.1447
     40 H5          7.9233   -6.8289    0.5651 H         1 <0>         0.1338
     41 H6          5.7328   -5.6493    0.3296 H         1 <0>         0.1557
     42 H7          2.2798   -8.0282   -0.4227 H         1 <0>         0.1755
     43 H8          1.8890   -4.7966   -2.0756 H         1 <0>         0.4333
     44 H9          4.0710   -2.5164   -1.4360 H         1 <0>         0.1445
     45 H10         6.0584   -1.8592   -2.7303 H         1 <0>         0.1343
     46 H11         5.9546   -5.5867   -4.8013 H         1 <0>         0.1310
     47 H12         3.9735   -6.2584   -3.5049 H         1 <0>         0.1354
     48 H13         7.3110   -3.7492   -5.6171 H         1 <0>         0.0993
     49 H14         7.3541   -2.1936   -4.7531 H         1 <0>         0.1005
     50 H15         8.6363   -3.2511   -2.9130 H         1 <0>         0.1364
     51 H16         8.5932   -4.8067   -3.7770 H         1 <0>         0.1341
     52 H17         9.7615   -3.7644   -5.5757 H         1 <0>         0.4339
     53 H18        11.0342   -3.2837   -2.9740 H         1 <0>         0.1478
     54 H19        10.9911   -4.8393   -3.8380 H         1 <0>         0.1397
     55 H20        13.4878   -3.3891   -3.0059 H         1 <0>         0.0821
     56 H21        13.5324   -4.8784   -3.9795 H         1 <0>         0.0766
     57 H22        15.0395   -4.7211   -2.5421 H         1 <0>         0.1282
     58 H23        17.2350   -5.2828   -1.5817 H         1 <0>         0.1352
     59 H24        19.1630   -3.1408   -4.7365 H         1 <0>         0.1419
     60 H25        16.9677   -2.5862   -5.7015 H         1 <0>         0.1388
     61 H26        19.9239   -5.3838   -2.9003 H         1 <0>         0.3941
     62 H27        12.1841   -4.9290   -6.0186 H         1 <0>         0.3899
     63 H28         9.8014   -2.3244   -4.7759 H         1 <0>         0.4321
@<TRIPOS>BOND
     1    1    6 ar
     2    1    2 ar
     3    1   37 1
     4    2    3 ar
     5    2   38 1
     6    3    4 ar
     7    3   39 1
     8    4   10 ar
     9    4    5 ar
    10    5    6 ar
    11    5    7 ar
    12    6   40 1
    13    7    8 ar
    14    7   41 1
    15    8    9 ar
    16    8   11 1
    17    9   10 ar
    18    9   42 1
    19   11   12 2
    20   11   13 2
    21   11   14 1
    22   14   15 1
    23   14   43 1
    24   15   20 ar
    25   15   16 ar
    26   16   17 ar
    27   16   44 1
    28   17   18 ar
    29   17   45 1
    30   18   19 ar
    31   18   21 1
    32   19   20 ar
    33   19   46 1
    34   20   47 1
    35   21   22 1
    36   21   48 1
    37   21   49 1
    38   22   23 1
    39   22   50 1
    40   22   51 1
    41   23   24 1
    42   23   52 1
    43   23   63 1
    44   24   25 1
    45   24   53 1
    46   24   54 1
    47   25   26 1
    48   25   27 1
    49   25   36 1
    50   27   28 1
    51   27   55 1
    52   27   56 1
    53   28   29 1
    54   29   34 ar
    55   29   30 ar
    56   30   31 ar
    57   30   57 1
    58   31   32 ar
    59   31   58 1
    60   32   33 ar
    61   32   35 1
    62   33   34 ar
    63   33   59 1
    64   34   60 1
    65   35   61 1
    66   36   62 1
@<TRIPOS>MOLECULE
CHEMBL182614
   66    69     0     0     0
SMALL
USER_CHARGES

@<TRIPOS>ATOM
      1 C1         -0.0187    1.5258    0.0104 C.3       1 <0>        -0.1843
      2 C2          0.0021   -0.0041    0.0020 C.3       1 <0>         0.0270
      3 H1         -1.0205   -0.3814    0.0098 H         1 <0>         0.1403
      4 C3          0.7421   -0.5109    1.2415 C.3       1 <0>        -0.0576
      5 C4          0.6567   -2.0144    1.2978 C.2       1 <0>        -0.2310
      6 C5         -0.2496   -2.7379    1.9742 C.2       1 <0>         0.1125
      7 N1         -0.0127   -4.0722    1.7894 N.pl3     1 <0>        -0.5695
      8 H2         -0.5361   -4.7904    2.1782 H         1 <0>         0.4294
      9 C6          1.0807   -4.2438    0.9680 C.ar      1 <0>         0.1199
     10 C7          1.5430   -2.9632    0.6196 C.ar      1 <0>        -0.1031
     11 C8          2.6511   -2.8259   -0.2206 C.ar      1 <0>        -0.0885
     12 C9          3.2801   -3.9382   -0.7043 C.ar      1 <0>        -0.1078
     13 C10         2.8283   -5.2067   -0.3686 C.ar      1 <0>        -0.1036
     14 C11         1.7394   -5.3674    0.4678 C.ar      1 <0>         0.0751
     15 O1          1.3029   -6.6143    0.7889 O.3       1 <0>        -0.6608
     16 S1          0.2696   -7.1763   -0.1770 S.o2      1 <0>         2.5865
     17 O2         -0.2354   -8.3376    0.4676 O.2       1 <0>        -0.9177
     18 O3         -0.5864   -6.0805   -0.4702 O.2       1 <0>        -0.9569
     19 C12         1.2158   -7.6423   -1.6528 C.3       1 <0>        -0.6934
     20 N2          0.6897   -0.4778   -1.2066 N.4       1 <0>        -0.5060
     21 C13        -0.0856   -0.0931   -2.3936 C.3       1 <0>        -0.0474
     22 C14         0.6305   -0.5866   -3.6524 C.3       1 <0>         0.1359
     23 H3          0.7239   -1.6719   -3.6155 H         1 <0>         0.1323
     24 C15        -0.1648   -0.1919   -4.8701 C.ar      1 <0>        -0.0993
     25 C16         0.0060    1.0606   -5.4307 C.ar      1 <0>        -0.1473
     26 C17        -0.7221    1.4257   -6.5477 C.ar      1 <0>        -0.0678
     27 C18        -1.6228    0.5395   -7.1066 C.ar      1 <0>        -0.1938
     28 C19        -1.7959   -0.7175   -6.5462 C.ar      1 <0>         0.1425
     29 C20        -1.0595   -1.0837   -5.4287 C.ar      1 <0>        -0.1381
     30 O4         -2.6813   -1.5909   -7.0941 O.3       1 <0>        -0.3054
     31 C21        -3.4003   -1.1483   -8.2470 C.3       1 <0>         0.1029
     32 C22        -4.3276   -2.2418   -8.7111 C.ar      1 <0>        -0.1058
     33 C23        -3.8866   -3.1803   -9.6253 C.ar      1 <0>        -0.0943
     34 C24        -4.7373   -4.1833  -10.0510 C.ar      1 <0>        -0.1213
     35 C25        -6.0287   -4.2482   -9.5622 C.ar      1 <0>        -0.1038
     36 C26        -6.4693   -3.3102   -8.6473 C.ar      1 <0>        -0.1219
     37 C27        -5.6174   -2.3097   -8.2184 C.ar      1 <0>        -0.0950
     38 O5          1.9312    0.0013   -3.7219 O.3       1 <0>        -0.5454
     39 H4          1.0039    1.9031    0.0027 H         1 <0>         0.0838
     40 H5         -0.5459    1.8868   -0.8726 H         1 <0>         0.0814
     41 H6         -0.5289    1.8773    0.9072 H         1 <0>         0.1083
     42 H7          1.7879   -0.2080    1.1895 H         1 <0>         0.0974
     43 H8          0.2852   -0.0874    2.1360 H         1 <0>         0.1216
     44 H9         -1.0473   -2.3272    2.5754 H         1 <0>         0.1859
     45 H10         3.0094   -1.8426   -0.4874 H         1 <0>         0.1299
     46 H11         4.1360   -3.8293   -1.3538 H         1 <0>         0.1495
     47 H12         3.3361   -6.0763   -0.7590 H         1 <0>         0.1528
     48 H13         1.9641   -8.3880   -1.3841 H         1 <0>         0.1396
     49 H14         0.5408   -8.0581   -2.4009 H         1 <0>         0.1427
     50 H15         1.7111   -6.7609   -2.0602 H         1 <0>         0.1312
     51 H16         1.6080   -0.0627   -1.2556 H         1 <0>         0.4257
     52 H17        -1.0777   -0.5415   -2.3406 H         1 <0>         0.1448
     53 H18        -0.1790    0.9922   -2.4305 H         1 <0>         0.1406
     54 H19         0.7091    1.7550   -4.9949 H         1 <0>         0.1246
     55 H20        -0.5869    2.4045   -6.9837 H         1 <0>         0.1343
     56 H21        -2.1919    0.8254   -7.9789 H         1 <0>         0.1357
     57 H22        -1.1891   -2.0635   -4.9933 H         1 <0>         0.1352
     58 H23        -3.9818   -0.2617   -7.9943 H         1 <0>         0.0749
     59 H24        -2.6965   -0.9064   -9.0434 H         1 <0>         0.0754
     60 H25        -2.8777   -3.1297  -10.0071 H         1 <0>         0.1242
     61 H26        -4.3930   -4.9162  -10.7657 H         1 <0>         0.1282
     62 H27        -6.6935   -5.0314   -9.8953 H         1 <0>         0.1277
     63 H28        -7.4784   -3.3607   -8.2657 H         1 <0>         0.1278
     64 H29        -5.9605   -1.5791   -7.5008 H         1 <0>         0.1235
     65 H30         1.9246    0.9676   -3.7575 H         1 <0>         0.3879
     66 H31         0.7761   -1.4825   -1.1724 H         1 <0>         0.4282
@<TRIPOS>BOND
     1    1    2 1
     2    1   39 1
     3    1   40 1
     4    1   41 1
     5    2    3 1
     6    2    4 1
     7    2   20 1
     8    4    5 1
     9    4   42 1
    10    4   43 1
    11    5   10 1
    12    5    6 2
    13    6    7 1
    14    6   44 1
    15    7    8 1
    16    7    9 1
    17    9   14 ar
    18    9   10 ar
    19   10   11 ar
    20   11   12 ar
    21   11   45 1
    22   12   13 ar
    23   12   46 1
    24   13   14 ar
    25   13   47 1
    26   14   15 1
    27   15   16 1
    28   16   17 2
    29   16   18 2
    30   16   19 1
    31   19   48 1
    32   19   49 1
    33   19   50 1
    34   20   21 1
    35   20   51 1
    36   20   66 1
    37   21   22 1
    38   21   52 1
    39   21   53 1
    40   22   23 1
    41   22   24 1
    42   22   38 1
    43   24   29 ar
    44   24   25 ar
    45   25   26 ar
    46   25   54 1
    47   26   27 ar
    48   26   55 1
    49   27   28 ar
    50   27   56 1
    51   28   29 ar
    52   28   30 1
    53   29   57 1
    54   30   31 1
    55   31   32 1
    56   31   58 1
    57   31   59 1
    58   32   37 ar
    59   32   33 ar
    60   33   34 ar
    61   33   60 1
    62   34   35 ar
    63   34   61 1
    64   35   36 ar
    65   35   62 1
    66   36   37 ar
    67   36   63 1
    68   37   64 1
    69   38   65 1
@<TRIPOS>MOLECULE
CHEMBL1083666
   75    79     0     0     0
SMALL
USER_CHARGES

@<TRIPOS>ATOM
      1 C1         -0.0187    1.5258    0.0104 C.3       1 <0>        -0.1456
      2 C2          0.0021   -0.0041    0.0020 C.3       1 <0>        -0.0506
      3 C3          0.7421   -0.5109    1.2415 C.3       1 <0>        -0.1452
      4 C4         -1.4117   -0.5257    0.0127 C.ar      1 <0>        -0.0968
      5 C5         -2.2592   -0.2048    1.0557 C.ar      1 <0>        -0.0766
      6 C6         -3.5561   -0.6834    1.0663 C.ar      1 <0>        -0.1436
      7 C7         -4.0087   -1.4838    0.0335 C.ar      1 <0>        -0.0852
      8 C8         -3.1656   -1.8071   -1.0117 C.ar      1 <0>        -0.2060
      9 C9         -1.8651   -1.3237   -1.0273 C.ar      1 <0>         0.1178
     10 O1         -1.0353   -1.6358   -2.0574 O.3       1 <0>        -0.2990
     11 C10        -1.5698   -2.4619   -3.0937 C.3       1 <0>         0.0301
     12 C11        -0.4971   -2.7036   -4.1575 C.3       1 <0>         0.0865
     13 C12        -1.1042   -3.4825   -5.3261 C.3       1 <0>        -0.0433
     14 N1         -0.0743   -3.7146   -6.3476 N.4       1 <0>        -0.3770
     15 C13         0.3548   -2.4279   -6.9088 C.3       1 <0>        -0.0106
     16 C14         1.4846   -2.6574   -7.9150 C.3       1 <0>        -0.1364
     17 C15         0.9813   -3.5648   -9.0412 C.3       1 <0>        -0.1150
     18 C16         0.4674   -4.8748   -8.4368 C.3       1 <0>        -0.1411
     19 C17        -0.6247   -4.5632   -7.4113 C.3       1 <0>        -0.0049
     20 C18         2.1280   -3.8631  -10.0091 C.3       1 <0>         0.0997
     21 N2          1.6187   -4.6313  -11.1478 N.am      1 <0>        -0.5613
     22 C19         1.6137   -5.9757  -11.0730 C.2       1 <0>         0.5744
     23 O2          2.0275   -6.5270  -10.0712 O.2       1 <0>        -0.4932
     24 C20         1.1102   -6.7810  -12.1955 C.ar      1 <0>        -0.1623
     25 C21         1.0883   -8.1676  -12.1588 C.ar      1 <0>        -0.0100
     26 C22         0.6036   -8.8875  -13.2442 C.ar      1 <0>        -0.1305
     27 C23         0.1398   -8.2630  -14.3663 C.ar      1 <0>        -0.0514
     28 C24         0.1452   -6.8593  -14.4440 C.ar      1 <0>        -0.0360
     29 C25         0.6342   -6.1165  -13.3487 C.ar      1 <0>        -0.0202
     30 C26         0.6539   -4.7037  -13.3936 C.ar      1 <0>        -0.1329
     31 C27         0.1857   -4.0559  -14.5262 C.ar      1 <0>        -0.0203
     32 C28        -0.2982   -4.7946  -15.6063 C.ar      1 <0>         0.1172
     33 C29        -0.3222   -6.1736  -15.5783 C.ar      1 <0>        -0.1536
     34 O3         -0.7537   -4.1427  -16.7084 O.3       1 <0>        -0.3082
     35 C30        -1.2379   -4.9482  -17.7849 C.3       1 <0>         0.0216
     36 C31         1.1677   -3.9672  -12.2286 C.2       1 <0>         0.5744
     37 O4          1.1891   -2.7513  -12.2434 O.2       1 <0>        -0.4825
     38 O5          0.5761   -3.4568   -3.5893 O.3       1 <0>        -0.5419
     39 H1          1.0039    1.9031    0.0027 H         1 <0>         0.0607
     40 H2         -0.5459    1.8868   -0.8726 H         1 <0>         0.0537
     41 H3         -0.5289    1.8773    0.9072 H         1 <0>         0.0581
     42 H4          0.5123   -0.3556   -0.8948 H         1 <0>         0.0825
     43 H5          0.2319   -0.1594    2.1383 H         1 <0>         0.0577
     44 H6          0.7568   -1.6008    1.2356 H         1 <0>         0.0543
     45 H7          1.7647   -0.1336    1.2338 H         1 <0>         0.0606
     46 H8         -1.9081    0.4202    1.8635 H         1 <0>         0.1326
     47 H9         -4.2168   -0.4320    1.8828 H         1 <0>         0.1285
     48 H10        -5.0222   -1.8568    0.0443 H         1 <0>         0.1271
     49 H11        -3.5195   -2.4323   -1.8181 H         1 <0>         0.1227
     50 H12        -1.8844   -3.4163   -2.6715 H         1 <0>         0.0755
     51 H13        -2.4271   -1.9654   -3.5483 H         1 <0>         0.0799
     52 H14        -0.1190   -1.7463   -4.5163 H         1 <0>         0.1344
     53 H15        -1.4822   -4.4398   -4.9673 H         1 <0>         0.1386
     54 H16        -1.9228   -2.9080   -5.7595 H         1 <0>         0.1437
     55 H17        -0.4874   -1.9521   -7.4111 H         1 <0>         0.1305
     56 H18         0.7097   -1.7820   -6.1057 H         1 <0>         0.1354
     57 H19         1.8005   -1.7011   -8.3318 H         1 <0>         0.1191
     58 H20         2.3275   -3.1329   -7.4136 H         1 <0>         0.0956
     59 H21         0.1717   -3.0677   -9.5756 H         1 <0>         0.0951
     60 H22         0.0563   -5.5034   -9.2267 H         1 <0>         0.1049
     61 H23         1.2893   -5.3963   -7.9463 H         1 <0>         0.1014
     62 H24        -0.9929   -5.4937   -6.9792 H         1 <0>         0.1317
     63 H25        -1.4461   -4.0419   -7.9029 H         1 <0>         0.1279
     64 H26         2.5559   -2.9260  -10.3652 H         1 <0>         0.1099
     65 H27         2.8961   -4.4411   -9.4952 H         1 <0>         0.1068
     66 H28         1.4491   -8.6890  -11.2846 H         1 <0>         0.1462
     67 H29         0.5940   -9.9665  -13.1992 H         1 <0>         0.1430
     68 H30        -0.2312   -8.8479  -15.1950 H         1 <0>         0.1435
     69 H31         0.1952   -2.9770  -14.5724 H         1 <0>         0.1570
     70 H32        -0.7005   -6.7253  -16.4262 H         1 <0>         0.1493
     71 H33        -0.4389   -5.5995  -18.1392 H         1 <0>         0.0621
     72 H34        -2.0739   -5.5550  -17.4371 H         1 <0>         0.0614
     73 H35        -1.5701   -4.3046  -18.5994 H         1 <0>         0.1101
     74 H36         0.3120   -4.3224   -3.2487 H         1 <0>         0.3897
     75 H37         0.7178   -4.1763   -5.9263 H         1 <0>         0.4287
@<TRIPOS>BOND
     1    1    2 1
     2    1   39 1
     3    1   40 1
     4    1   41 1
     5    2    3 1
     6    2    4 1
     7    2   42 1
     8    3   43 1
     9    3   44 1
    10    3   45 1
    11    4    9 ar
    12    4    5 ar
    13    5    6 ar
    14    5   46 1
    15    6    7 ar
    16    6   47 1
    17    7    8 ar
    18    7   48 1
    19    8    9 ar
    20    8   49 1
    21    9   10 1
    22   10   11 1
    23   11   12 1
    24   11   50 1
    25   11   51 1
    26   12   13 1
    27   12   38 1
    28   12   52 1
    29   13   14 1
    30   13   53 1
    31   13   54 1
    32   14   19 1
    33   14   15 1
    34   14   75 1
    35   15   16 1
    36   15   55 1
    37   15   56 1
    38   16   17 1
    39   16   57 1
    40   16   58 1
    41   17   18 1
    42   17   20 1
    43   17   59 1
    44   18   19 1
    45   18   60 1
    46   18   61 1
    47   19   62 1
    48   19   63 1
    49   20   21 1
    50   20   64 1
    51   20   65 1
    52   21   36 am
    53   21   22 am
    54   22   23 2
    55   22   24 1
    56   24   29 ar
    57   24   25 ar
    58   25   26 ar
    59   25   66 1
    60   26   27 ar
    61   26   67 1
    62   27   28 ar
    63   27   68 1
    64   28   33 ar
    65   28   29 ar
    66   29   30 ar
    67   30   31 ar
    68   30   36 1
    69   31   32 ar
    70   31   69 1
    71   32   33 ar
    72   32   34 1
    73   33   70 1
    74   34   35 1
    75   35   71 1
    76   35   72 1
    77   35   73 1
    78   36   37 2
    79   38   74 1
@<TRIPOS>MOLECULE
CHEMBL1083666
   75    79     0     0     0
SMALL
USER_CHARGES

@<TRIPOS>ATOM
      1 C1         -3.2725   -8.7141   -0.1962 C.3       1 <0>        -0.1452
      2 C2         -3.8158   -8.2153   -1.5366 C.3       1 <0>        -0.0507
      3 C3         -4.8115   -9.2342   -2.0944 C.3       1 <0>        -0.1454
      4 C4         -4.5096   -6.8925   -1.3366 C.ar      1 <0>        -0.0969
      5 C5         -5.5890   -6.8007   -0.4791 C.ar      1 <0>        -0.0767
      6 C6         -6.2262   -5.5876   -0.2955 C.ar      1 <0>        -0.1436
      7 C7         -5.7850   -4.4633   -0.9689 C.ar      1 <0>        -0.0851
      8 C8         -4.7061   -4.5498   -1.8269 C.ar      1 <0>        -0.2060
      9 C9         -4.0615   -5.7650   -2.0089 C.ar      1 <0>         0.1178
     10 O1         -2.9962   -5.8515   -2.8483 O.3       1 <0>        -0.2989
     11 C10        -2.5900   -4.6501   -3.5069 C.3       1 <0>         0.0303
     12 C11        -1.3849   -4.9423   -4.4031 C.3       1 <0>         0.0863
     13 C12        -1.0275   -3.6875   -5.2023 C.3       1 <0>        -0.0432
     14 N1          0.1201   -3.9724   -6.0739 N.4       1 <0>        -0.3774
     15 C13         0.5589   -2.7316   -6.7239 C.3       1 <0>        -0.0039
     16 C14         1.8038   -3.0072   -7.5699 C.3       1 <0>        -0.1378
     17 C15         1.4680   -4.0531   -8.6368 C.3       1 <0>        -0.1153
     18 C16         0.9412   -5.3168   -7.9508 C.3       1 <0>        -0.1394
     19 C17        -0.2718   -4.9557   -7.0907 C.3       1 <0>        -0.0112
     20 C18         2.7282   -4.3921   -9.4355 C.3       1 <0>         0.0999
     21 N2          2.3824   -5.3014  -10.5308 N.am      1 <0>        -0.5614
     22 C19         2.4221   -6.6289  -10.3089 C.2       1 <0>         0.5739
     23 O2          2.7410   -7.0493   -9.2133 O.2       1 <0>        -0.4918
     24 C20         2.0818   -7.5730  -11.3835 C.ar      1 <0>        -0.1622
     25 C21         2.1107   -8.9472  -11.1963 C.ar      1 <0>        -0.0096
     26 C22         1.7814   -9.8017  -12.2416 C.ar      1 <0>        -0.1302
     27 C23         1.4237   -9.3238  -13.4696 C.ar      1 <0>        -0.0517
     28 C24         1.3822   -7.9377  -13.7009 C.ar      1 <0>        -0.0360
     29 C25         1.7138   -7.0593  -12.6479 C.ar      1 <0>        -0.0202
     30 C26         1.6825   -5.6599  -12.8463 C.ar      1 <0>        -0.1329
     31 C27         1.3207   -5.1603  -14.0876 C.ar      1 <0>        -0.0205
     32 C28         0.9923   -6.0328  -15.1256 C.ar      1 <0>         0.1168
     33 C29         1.0199   -7.4005  -14.9481 C.ar      1 <0>        -0.1533
     34 O3          0.6394   -5.5251  -16.3360 O.3       1 <0>        -0.3083
     35 C30         0.3130   -6.4637  -17.3629 C.3       1 <0>         0.0215
     36 C31         2.0311   -4.7791  -11.7210 C.2       1 <0>         0.5748
     37 O4          2.0059   -3.5722  -11.8677 O.2       1 <0>        -0.4833
     38 O5         -0.2710   -5.3249   -3.5938 O.3       1 <0>        -0.5413
     39 H1         -2.7707   -9.6708   -0.3409 H         1 <0>         0.0606
     40 H2         -2.5631   -7.9881    0.2012 H         1 <0>         0.0544
     41 H3         -4.0967   -8.8387    0.5062 H         1 <0>         0.0577
     42 H4         -2.9916   -8.0907   -2.2390 H         1 <0>         0.0824
     43 H5         -5.6357   -9.3588   -1.3920 H         1 <0>         0.0580
     44 H6         -5.1986   -8.8789   -3.0493 H         1 <0>         0.0535
     45 H7         -4.3097  -10.1910   -2.2390 H         1 <0>         0.0606
     46 H8         -5.9355   -7.6773    0.0480 H         1 <0>         0.1326
     47 H9         -7.0702   -5.5181    0.3747 H         1 <0>         0.1285
     48 H10        -6.2847   -3.5169   -0.8241 H         1 <0>         0.1272
     49 H11        -4.3619   -3.6714   -2.3527 H         1 <0>         0.1228
     50 H12        -3.4123   -4.2733   -4.1151 H         1 <0>         0.0797
     51 H13        -2.3164   -3.9023   -2.7625 H         1 <0>         0.0758
     52 H14        -1.6306   -5.7525   -5.0896 H         1 <0>         0.1333
     53 H15        -1.8810   -3.3892   -5.8112 H         1 <0>         0.1435
     54 H16        -0.7710   -2.8804   -4.5160 H         1 <0>         0.1394
     55 H17        -0.2391   -2.3556   -7.3642 H         1 <0>         0.1302
     56 H18         0.7944   -1.9872   -5.9634 H         1 <0>         0.1341
     57 H19         2.1269   -2.0851   -8.0531 H         1 <0>         0.1194
     58 H20         2.6025   -3.3830   -6.9304 H         1 <0>         0.0948
     59 H21         0.7053   -3.6577   -9.3076 H         1 <0>         0.0951
     60 H22         0.6477   -6.0457   -8.7062 H         1 <0>         0.1046
     61 H23         1.7220   -5.7406   -7.3192 H         1 <0>         0.1020
     62 H24        -0.6496   -5.8532   -6.6009 H         1 <0>         0.1327
     63 H25        -1.0521   -4.5323   -7.7232 H         1 <0>         0.1281
     64 H26         3.1563   -3.4769   -9.8445 H         1 <0>         0.1095
     65 H27         3.4553   -4.8722   -8.7805 H         1 <0>         0.1066
     66 H28         2.3903   -9.3542  -10.2358 H         1 <0>         0.1465
     67 H29         1.8095  -10.8690  -12.0789 H         1 <0>         0.1432
     68 H30         1.1727  -10.0112  -14.2639 H         1 <0>         0.1435
     69 H31         1.2926   -4.0932  -14.2516 H         1 <0>         0.1568
     70 H32         0.7625   -8.0574  -15.7658 H         1 <0>         0.1493
     71 H33         1.1722   -7.1065  -17.5542 H         1 <0>         0.0621
     72 H34        -0.5325   -7.0728  -17.0431 H         1 <0>         0.0614
     73 H35         0.0501   -5.9276  -18.2749 H         1 <0>         0.1100
     74 H36         0.0033   -4.6501   -2.9579 H         1 <0>         0.3894
     75 H37         0.8769   -4.3456   -5.5206 H         1 <0>         0.4288
@<TRIPOS>BOND
     1    1    2 1
     2    1   39 1
     3    1   40 1
     4    1   41 1
     5    2    3 1
     6    2    4 1
     7    2   42 1
     8    3   43 1
     9    3   44 1
    10    3   45 1
    11    4    9 ar
    12    4    5 ar
    13    5    6 ar
    14    5   46 1
    15    6    7 ar
    16    6   47 1
    17    7    8 ar
    18    7   48 1
    19    8    9 ar
    20    8   49 1
    21    9   10 1
    22   10   11 1
    23   11   12 1
    24   11   50 1
    25   11   51 1
    26   12   13 1
    27   12   38 1
    28   12   52 1
    29   13   14 1
    30   13   53 1
    31   13   54 1
    32   14   19 1
    33   14   15 1
    34   14   75 1
    35   15   16 1
    36   15   55 1
    37   15   56 1
    38   16   17 1
    39   16   57 1
    40   16   58 1
    41   17   18 1
    42   17   20 1
    43   17   59 1
    44   18   19 1
    45   18   60 1
    46   18   61 1
    47   19   62 1
    48   19   63 1
    49   20   21 1
    50   20   64 1
    51   20   65 1
    52   21   36 am
    53   21   22 am
    54   22   23 2
    55   22   24 1
    56   24   29 ar
    57   24   25 ar
    58   25   26 ar
    59   25   66 1
    60   26   27 ar
    61   26   67 1
    62   27   28 ar
    63   27   68 1
    64   28   33 ar
    65   28   29 ar
    66   29   30 ar
    67   30   31 ar
    68   30   36 1
    69   31   32 ar
    70   31   69 1
    71   32   33 ar
    72   32   34 1
    73   33   70 1
    74   34   35 1
    75   35   71 1
    76   35   72 1
    77   35   73 1
    78   36   37 2
    79   38   74 1
@<TRIPOS>MOLECULE
CHEMBL394600
   62    65     0     0     0
SMALL
USER_CHARGES

@<TRIPOS>ATOM
      1 C1         -0.0811    1.5495   -0.2776 C.3       1 <0>        -0.1841
      2 C2         -0.0358    0.0202   -0.2891 C.3       1 <0>         0.0285
      3 C3         -1.4298   -0.5336    0.0126 C.3       1 <0>        -0.0973
      4 C4         -1.4133   -2.0347   -0.1193 C.ar      1 <0>        -0.1413
      5 C5         -1.6901   -2.6233   -1.3395 C.ar      1 <0>        -0.0686
      6 C6         -1.6752   -3.9991   -1.4632 C.ar      1 <0>        -0.1819
      7 C7         -1.3822   -4.7904   -0.3618 C.ar      1 <0>         0.0947
      8 C8         -1.1049   -4.1972    0.8615 C.ar      1 <0>        -0.1019
      9 C9         -1.1159   -2.8208    0.9786 C.ar      1 <0>        -0.1085
     10 O1         -1.3674   -6.1440   -0.4808 O.3       1 <0>        -0.1868
     11 C10        -1.5065   -6.6760   -1.7214 C.2       1 <0>         0.3118
     12 C11        -1.6182   -8.0560   -2.0136 C.2       1 <0>        -0.4630
     13 N1         -1.7374   -8.2153   -3.2966 N.2       1 <0>        -0.1127
     14 O2         -1.7071   -6.9285   -3.8924 O.3       1 <0>         0.0762
     15 N2         -1.5640   -5.9963   -2.8326 N.2       1 <0>        -0.3080
     16 S1         -1.5978   -9.3547   -0.8230 S.o2      1 <0>         2.5902
     17 O3         -1.1762  -10.5265   -1.5073 O.2       1 <0>        -0.8874
     18 O4         -0.9145   -8.8504    0.3164 O.2       1 <0>        -0.8864
     19 C12        -3.2656   -9.6335   -0.3275 C.ar      1 <0>        -0.6621
     20 C13        -3.7958   -8.9331    0.7399 C.ar      1 <0>        -0.0191
     21 C14        -5.1042   -9.1518    1.1286 C.ar      1 <0>        -0.1373
     22 C15        -5.8825  -10.0706    0.4497 C.ar      1 <0>        -0.0493
     23 C16        -5.3526  -10.7703   -0.6183 C.ar      1 <0>        -0.1339
     24 C17        -4.0455  -10.5484   -1.0097 C.ar      1 <0>        -0.0152
     25 N3          0.9094   -0.4494    0.7327 N.4       1 <0>        -0.5069
     26 C18         2.2681   -0.0177    0.3783 C.3       1 <0>        -0.0471
     27 C19         3.2525   -0.5068    1.4426 C.3       1 <0>         0.1361
     28 C20         4.6255    0.0386    1.1454 C.ar      1 <0>        -0.1062
     29 C21         5.4128   -0.5624    0.1820 C.ar      1 <0>        -0.1471
     30 C22         6.6775   -0.0620   -0.0935 C.ar      1 <0>         0.1389
     31 C23         7.1509    1.0419    0.5988 C.ar      1 <0>        -0.1578
     32 C24         6.3590    1.6432    1.5649 C.ar      1 <0>         0.1381
     33 C25         5.0928    1.1424    1.8328 C.ar      1 <0>        -0.1401
     34 O5          6.8205    2.7252    2.2455 O.3       1 <0>        -0.4909
     35 O6          7.4515   -0.6539   -1.0408 O.3       1 <0>        -0.4910
     36 O7          3.2948   -1.9352    1.4318 O.3       1 <0>        -0.5438
     37 H1          0.9120    1.9440   -0.4925 H         1 <0>         0.0832
     38 H2         -0.7824    1.8979   -1.0357 H         1 <0>         0.1092
     39 H3         -0.4051    1.8960    0.7038 H         1 <0>         0.0854
     40 H4          0.2883   -0.3263   -1.2704 H         1 <0>         0.1408
     41 H5         -1.7169   -0.2613    1.0283 H         1 <0>         0.1019
     42 H6         -2.1476   -0.1147   -0.6926 H         1 <0>         0.1244
     43 H7         -1.9184   -2.0070   -2.1964 H         1 <0>         0.1407
     44 H8         -1.8918   -4.4584   -2.4164 H         1 <0>         0.1879
     45 H9         -0.8769   -4.8109    1.7204 H         1 <0>         0.1532
     46 H10        -0.8957   -2.3584    1.9295 H         1 <0>         0.1387
     47 H11        -3.1877   -8.2153    1.2703 H         1 <0>         0.1452
     48 H12        -5.5182   -8.6052    1.9630 H         1 <0>         0.1396
     49 H13        -6.9045  -10.2420    0.7538 H         1 <0>         0.1391
     50 H14        -5.9606  -11.4883   -1.1485 H         1 <0>         0.1424
     51 H15        -3.6326  -11.0924   -1.8464 H         1 <0>         0.1489
     52 H16         0.6562   -0.0612    1.6289 H         1 <0>         0.4262
     53 H17         2.5416   -0.4371   -0.5898 H         1 <0>         0.1372
     54 H18         2.3013    1.0705    0.3254 H         1 <0>         0.1481
     55 H19         2.9284   -0.1603    2.4239 H         1 <0>         0.1343
     56 H20         5.0437   -1.4226   -0.3568 H         1 <0>         0.1320
     57 H21         8.1350    1.4326    0.3861 H         1 <0>         0.1451
     58 H22         4.4738    1.6132    2.5822 H         1 <0>         0.1381
     59 H23         6.6095    3.5716    1.8282 H         1 <0>         0.4002
     60 H24         7.3309   -0.2924   -1.9295 H         1 <0>         0.3999
     61 H25         3.5757   -2.3140    0.5876 H         1 <0>         0.3897
     62 H26         0.8786   -1.4568    0.7818 H         1 <0>         0.4299
@<TRIPOS>BOND
     1    1    2 1
     2    1   37 1
     3    1   38 1
     4    1   39 1
     5    2    3 1
     6    2   25 1
     7    2   40 1
     8    3    4 1
     9    3   41 1
    10    3   42 1
    11    4    9 ar
    12    4    5 ar
    13    5    6 ar
    14    5   43 1
    15    6    7 ar
    16    6   44 1
    17    7    8 ar
    18    7   10 1
    19    8    9 ar
    20    8   45 1
    21    9   46 1
    22   10   11 1
    23   11   15 2
    24   11   12 1
    25   12   13 2
    26   12   16 1
    27   13   14 1
    28   14   15 1
    29   16   17 2
    30   16   18 2
    31   16   19 1
    32   19   24 ar
    33   19   20 ar
    34   20   21 ar
    35   20   47 1
    36   21   22 ar
    37   21   48 1
    38   22   23 ar
    39   22   49 1
    40   23   24 ar
    41   23   50 1
    42   24   51 1
    43   25   26 1
    44   25   52 1
    45   25   62 1
    46   26   27 1
    47   26   53 1
    48   26   54 1
    49   27   28 1
    50   27   36 1
    51   27   55 1
    52   28   33 ar
    53   28   29 ar
    54   29   30 ar
    55   29   56 1
    56   30   31 ar
    57   30   35 1
    58   31   32 ar
    59   31   57 1
    60   32   33 ar
    61   32   34 1
    62   33   58 1
    63   34   59 1
    64   35   60 1
    65   36   61 1
@<TRIPOS>MOLECULE
CHEMBL394600
   62    65     0     0     0
SMALL
USER_CHARGES

@<TRIPOS>ATOM
      1 C1         -0.0811    1.5495   -0.2776 C.3       1 <0>        -0.1844
      2 C2         -0.0358    0.0202   -0.2891 C.3       1 <0>         0.0283
      3 C3         -1.4298   -0.5336    0.0126 C.3       1 <0>        -0.0971
      4 C4         -1.4133   -2.0347   -0.1193 C.ar      1 <0>        -0.1400
      5 C5         -1.6901   -2.6233   -1.3395 C.ar      1 <0>        -0.0677
      6 C6         -1.6752   -3.9991   -1.4632 C.ar      1 <0>        -0.1813
      7 C7         -1.3822   -4.7904   -0.3618 C.ar      1 <0>         0.0943
      8 C8         -1.1049   -4.1972    0.8615 C.ar      1 <0>        -0.1038
      9 C9         -1.1159   -2.8208    0.9786 C.ar      1 <0>        -0.1110
     10 O1         -1.3674   -6.1440   -0.4808 O.3       1 <0>        -0.1871
     11 C10        -1.5065   -6.6760   -1.7214 C.2       1 <0>         0.3113
     12 C11        -1.6182   -8.0560   -2.0136 C.2       1 <0>        -0.4631
     13 N1         -1.7374   -8.2153   -3.2966 N.2       1 <0>        -0.1127
     14 O2         -1.7071   -6.9285   -3.8924 O.3       1 <0>         0.0768
     15 N2         -1.5640   -5.9963   -2.8326 N.2       1 <0>        -0.3074
     16 S1         -1.5978   -9.3547   -0.8230 S.o2      1 <0>         2.5906
     17 O3         -1.1762  -10.5265   -1.5073 O.2       1 <0>        -0.8874
     18 O4         -0.9145   -8.8504    0.3164 O.2       1 <0>        -0.8871
     19 C12        -3.2656   -9.6335   -0.3275 C.ar      1 <0>        -0.6621
     20 C13        -3.7958   -8.9331    0.7399 C.ar      1 <0>        -0.0191
     21 C14        -5.1042   -9.1518    1.1286 C.ar      1 <0>        -0.1373
     22 C15        -5.8825  -10.0706    0.4497 C.ar      1 <0>        -0.0492
     23 C16        -5.3526  -10.7703   -0.6183 C.ar      1 <0>        -0.1338
     24 C17        -4.0455  -10.5484   -1.0097 C.ar      1 <0>        -0.0151
     25 N3          0.9094   -0.4494    0.7327 N.4       1 <0>        -0.5055
     26 C18         2.2681   -0.0177    0.3783 C.3       1 <0>        -0.0480
     27 C19         3.2525   -0.5068    1.4426 C.3       1 <0>         0.1368
     28 C20         4.6463   -0.0640    1.0790 C.ar      1 <0>        -0.1063
     29 C21         5.0881    1.1931    1.4449 C.ar      1 <0>        -0.1461
     30 C22         6.3711    1.6033    1.1113 C.ar      1 <0>         0.1386
     31 C23         7.2099    0.7506    0.4103 C.ar      1 <0>        -0.1576
     32 C24         6.7643   -0.5101    0.0443 C.ar      1 <0>         0.1384
     33 C25         5.4824   -0.9177    0.3852 C.ar      1 <0>        -0.1412
     34 O5          7.5841   -1.3480   -0.6432 O.3       1 <0>        -0.4932
     35 O6          6.8049    2.8399    1.4711 O.3       1 <0>        -0.4935
     36 O7          2.8938    0.0430    2.7118 O.3       1 <0>        -0.5455
     37 H1          0.9120    1.9440   -0.4925 H         1 <0>         0.0832
     38 H2         -0.7824    1.8979   -1.0357 H         1 <0>         0.1095
     39 H3         -0.4051    1.8960    0.7038 H         1 <0>         0.0851
     40 H4          0.2883   -0.3263   -1.2704 H         1 <0>         0.1417
     41 H5         -1.7169   -0.2613    1.0283 H         1 <0>         0.1021
     42 H6         -2.1476   -0.1147   -0.6926 H         1 <0>         0.1245
     43 H7         -1.9184   -2.0070   -2.1964 H         1 <0>         0.1413
     44 H8         -1.8918   -4.4584   -2.4164 H         1 <0>         0.1881
     45 H9         -0.8769   -4.8109    1.7204 H         1 <0>         0.1531
     46 H10        -0.8957   -2.3584    1.9295 H         1 <0>         0.1395
     47 H11        -3.1877   -8.2153    1.2703 H         1 <0>         0.1451
     48 H12        -5.5182   -8.6052    1.9630 H         1 <0>         0.1396
     49 H13        -6.9045  -10.2420    0.7538 H         1 <0>         0.1391
     50 H14        -5.9606  -11.4883   -1.1485 H         1 <0>         0.1425
     51 H15        -3.6326  -11.0924   -1.8464 H         1 <0>         0.1489
     52 H16         0.6562   -0.0612    1.6289 H         1 <0>         0.4289
     53 H17         2.5416   -0.4371   -0.5898 H         1 <0>         0.1458
     54 H18         2.3013    1.0705    0.3254 H         1 <0>         0.1416
     55 H19         3.2192   -1.5950    1.4955 H         1 <0>         0.1345
     56 H20         4.4341    1.8571    1.9907 H         1 <0>         0.1326
     57 H21         8.2087    1.0681    0.1495 H         1 <0>         0.1449
     58 H22         5.1363   -1.9014    0.1042 H         1 <0>         0.1374
     59 H23         8.1247   -1.9189   -0.0803 H         1 <0>         0.4028
     60 H24         7.2335    2.8698    2.3374 H         1 <0>         0.4025
     61 H25         2.9021    1.0097    2.7382 H         1 <0>         0.3890
     62 H26         0.8786   -1.4568    0.7818 H         1 <0>         0.4259
@<TRIPOS>BOND
     1    1    2 1
     2    1   37 1
     3    1   38 1
     4    1   39 1
     5    2    3 1
     6    2   25 1
     7    2   40 1
     8    3    4 1
     9    3   41 1
    10    3   42 1
    11    4    9 ar
    12    4    5 ar
    13    5    6 ar
    14    5   43 1
    15    6    7 ar
    16    6   44 1
    17    7    8 ar
    18    7   10 1
    19    8    9 ar
    20    8   45 1
    21    9   46 1
    22   10   11 1
    23   11   15 2
    24   11   12 1
    25   12   13 2
    26   12   16 1
    27   13   14 1
    28   14   15 1
    29   16   17 2
    30   16   18 2
    31   16   19 1
    32   19   24 ar
    33   19   20 ar
    34   20   21 ar
    35   20   47 1
    36   21   22 ar
    37   21   48 1
    38   22   23 ar
    39   22   49 1
    40   23   24 ar
    41   23   50 1
    42   24   51 1
    43   25   26 1
    44   25   52 1
    45   25   62 1
    46   26   27 1
    47   26   53 1
    48   26   54 1
    49   27   28 1
    50   27   36 1
    51   27   55 1
    52   28   33 ar
    53   28   29 ar
    54   29   30 ar
    55   29   56 1
    56   30   31 ar
    57   30   35 1
    58   31   32 ar
    59   31   57 1
    60   32   33 ar
    61   32   34 1
    62   33   58 1
    63   34   59 1
    64   35   60 1
    65   36   61 1
@<TRIPOS>MOLECULE
CHEMBL394600
   62    65     0     0     0
SMALL
USER_CHARGES

@<TRIPOS>ATOM
      1 C1         -0.2771    1.4962    0.1527 C.3       1 <0>        -0.1840
      2 C2         -0.2409   -0.0333    0.1660 C.3       1 <0>         0.0286
      3 C3          0.7403   -0.5109    1.2385 C.3       1 <0>        -0.0977
      4 C4          0.8687   -2.0109    1.1696 C.ar      1 <0>        -0.1397
      5 C5          0.0190   -2.8110    1.9110 C.ar      1 <0>        -0.1064
      6 C6          0.1343   -4.1862    1.8493 C.ar      1 <0>        -0.1825
      7 C7          1.1039   -4.7644    1.0426 C.ar      1 <0>         0.0944
      8 C8          1.9553   -3.9592    0.2996 C.ar      1 <0>        -0.1024
      9 C9          1.8323   -2.5846    0.3608 C.ar      1 <0>        -0.0730
     10 O1          1.2197   -6.1169    0.9805 O.3       1 <0>        -0.1862
     11 C10         0.2810   -6.8664    1.6119 C.2       1 <0>         0.3134
     12 C11         0.3056   -8.2755    1.7375 C.2       1 <0>        -0.4631
     13 N1         -0.7417   -8.6666    2.3977 N.2       1 <0>        -0.1118
     14 O2         -1.4946   -7.5112    2.7295 O.3       1 <0>         0.0754
     15 N2         -0.7837   -6.4016    2.2040 N.2       1 <0>        -0.3112
     16 S1          1.5604   -9.3339    1.0972 S.o2      1 <0>         2.5897
     17 O3          0.9671  -10.6148    0.9340 O.2       1 <0>        -0.8872
     18 O4          2.1715   -8.6348    0.0216 O.2       1 <0>        -0.8860
     19 C12         2.7881   -9.5034    2.3497 C.ar      1 <0>        -0.6622
     20 C13         3.8455   -8.6148    2.4059 C.ar      1 <0>        -0.0191
     21 C14         4.8086   -8.7478    3.3885 C.ar      1 <0>        -0.1371
     22 C15         4.7141   -9.7691    4.3153 C.ar      1 <0>        -0.0491
     23 C16         3.6562  -10.6572    4.2597 C.ar      1 <0>        -0.1339
     24 C17         2.6907  -10.5216    3.2796 C.ar      1 <0>        -0.0153
     25 N3         -1.5825   -0.5523    0.4637 N.4       1 <0>        -0.5073
     26 C18        -2.4990   -0.1947   -0.6273 C.3       1 <0>        -0.0465
     27 C19        -3.8963   -0.7353   -0.3173 C.3       1 <0>         0.1358
     28 C20        -4.8067   -0.4762   -1.4899 C.ar      1 <0>        -0.1060
     29 C21        -5.3622    0.7763   -1.6684 C.ar      1 <0>        -0.1470
     30 C22        -6.2008    1.0174   -2.7474 C.ar      1 <0>         0.1386
     31 C23        -6.4812    0.0002   -3.6467 C.ar      1 <0>        -0.1577
     32 C24        -5.9227   -1.2556   -3.4655 C.ar      1 <0>         0.1387
     33 C25        -5.0801   -1.4901   -2.3880 C.ar      1 <0>        -0.1404
     34 O5         -6.1960   -2.2548   -4.3451 O.3       1 <0>        -0.4908
     35 O6         -6.7472    2.2494   -2.9222 O.3       1 <0>        -0.4908
     36 O7         -4.4144   -0.0796    0.8419 O.3       1 <0>        -0.5435
     37 H1          0.7184    1.8813   -0.0681 H         1 <0>         0.1097
     38 H2         -0.9760    1.8365   -0.6113 H         1 <0>         0.0825
     39 H3         -0.5994    1.8605    1.1282 H         1 <0>         0.0852
     40 H4          0.0815   -0.3976   -0.8094 H         1 <0>         0.1421
     41 H5          1.7153   -0.0546    1.0680 H         1 <0>         0.1254
     42 H6          0.3712   -0.2226    2.2228 H         1 <0>         0.1014
     43 H7         -0.7352   -2.3605    2.5391 H         1 <0>         0.1338
     44 H8         -0.5293   -4.8108    2.4289 H         1 <0>         0.1884
     45 H9          2.7110   -4.4067   -0.3288 H         1 <0>         0.1534
     46 H10         2.4918   -1.9575   -0.2207 H         1 <0>         0.1470
     47 H11         3.9194   -7.8169    1.6818 H         1 <0>         0.1453
     48 H12         5.6351   -8.0540    3.4320 H         1 <0>         0.1398
     49 H13         5.4669   -9.8735    5.0826 H         1 <0>         0.1392
     50 H14         3.5825  -11.4553    4.9835 H         1 <0>         0.1424
     51 H15         1.8622  -11.2132    3.2384 H         1 <0>         0.1488
     52 H16        -1.5423   -1.5565    0.5537 H         1 <0>         0.4259
     53 H17        -2.5424    0.8900   -0.7245 H         1 <0>         0.1412
     54 H18        -2.1401   -0.6291   -1.5604 H         1 <0>         0.1450
     55 H19        -3.8382   -1.8079   -0.1324 H         1 <0>         0.1326
     56 H20        -5.1438    1.5683   -0.9673 H         1 <0>         0.1326
     57 H21        -7.1339    0.1858   -4.4869 H         1 <0>         0.1452
     58 H22        -4.6413   -2.4671   -2.2489 H         1 <0>         0.1374
     59 H23        -5.5787   -2.3047   -5.0878 H         1 <0>         0.4004
     60 H24        -6.2088    2.8456   -3.4605 H         1 <0>         0.3997
     61 H25        -4.4937    0.8796    0.7487 H         1 <0>         0.3892
     62 H26        -1.9147   -0.1502    1.3274 H         1 <0>         0.4299
@<TRIPOS>BOND
     1    1    2 1
     2    1   37 1
     3    1   38 1
     4    1   39 1
     5    2    3 1
     6    2   25 1
     7    2   40 1
     8    3    4 1
     9    3   41 1
    10    3   42 1
    11    4    9 ar
    12    4    5 ar
    13    5    6 ar
    14    5   43 1
    15    6    7 ar
    16    6   44 1
    17    7    8 ar
    18    7   10 1
    19    8    9 ar
    20    8   45 1
    21    9   46 1
    22   10   11 1
    23   11   15 2
    24   11   12 1
    25   12   13 2
    26   12   16 1
    27   13   14 1
    28   14   15 1
    29   16   17 2
    30   16   18 2
    31   16   19 1
    32   19   24 ar
    33   19   20 ar
    34   20   21 ar
    35   20   47 1
    36   21   22 ar
    37   21   48 1
    38   22   23 ar
    39   22   49 1
    40   23   24 ar
    41   23   50 1
    42   24   51 1
    43   25   26 1
    44   25   52 1
    45   25   62 1
    46   26   27 1
    47   26   53 1
    48   26   54 1
    49   27   28 1
    50   27   36 1
    51   27   55 1
    52   28   33 ar
    53   28   29 ar
    54   29   30 ar
    55   29   56 1
    56   30   31 ar
    57   30   35 1
    58   31   32 ar
    59   31   57 1
    60   32   33 ar
    61   32   34 1
    62   33   58 1
    63   34   59 1
    64   35   60 1
    65   36   61 1
@<TRIPOS>MOLECULE
CHEMBL394600
   62    65     0     0     0
SMALL
USER_CHARGES

@<TRIPOS>ATOM
      1 C1         -0.2771    1.4962    0.1527 C.3       1 <0>        -0.1846
      2 C2         -0.2409   -0.0333    0.1660 C.3       1 <0>         0.0283
      3 C3          0.7403   -0.5109    1.2385 C.3       1 <0>        -0.0974
      4 C4          0.8687   -2.0109    1.1696 C.ar      1 <0>        -0.1403
      5 C5          0.0190   -2.8110    1.9110 C.ar      1 <0>        -0.1039
      6 C6          0.1343   -4.1862    1.8493 C.ar      1 <0>        -0.1810
      7 C7          1.1039   -4.7644    1.0426 C.ar      1 <0>         0.0940
      8 C8          1.9553   -3.9592    0.2996 C.ar      1 <0>        -0.1029
      9 C9          1.8323   -2.5846    0.3608 C.ar      1 <0>        -0.0733
     10 O1          1.2197   -6.1169    0.9805 O.3       1 <0>        -0.1864
     11 C10         0.2810   -6.8664    1.6119 C.2       1 <0>         0.3128
     12 C11         0.3056   -8.2755    1.7375 C.2       1 <0>        -0.4630
     13 N1         -0.7417   -8.6666    2.3977 N.2       1 <0>        -0.1126
     14 O2         -1.4946   -7.5112    2.7295 O.3       1 <0>         0.0751
     15 N2         -0.7837   -6.4016    2.2040 N.2       1 <0>        -0.3095
     16 S1          1.5604   -9.3339    1.0972 S.o2      1 <0>         2.5897
     17 O3          0.9671  -10.6148    0.9340 O.2       1 <0>        -0.8875
     18 O4          2.1715   -8.6348    0.0216 O.2       1 <0>        -0.8859
     19 C12         2.7881   -9.5034    2.3497 C.ar      1 <0>        -0.6622
     20 C13         3.8455   -8.6148    2.4059 C.ar      1 <0>        -0.0190
     21 C14         4.8086   -8.7478    3.3885 C.ar      1 <0>        -0.1371
     22 C15         4.7141   -9.7691    4.3153 C.ar      1 <0>        -0.0492
     23 C16         3.6562  -10.6572    4.2597 C.ar      1 <0>        -0.1340
     24 C17         2.6907  -10.5216    3.2796 C.ar      1 <0>        -0.0154
     25 N3         -1.5825   -0.5523    0.4637 N.4       1 <0>        -0.5065
     26 C18        -2.4990   -0.1947   -0.6273 C.3       1 <0>        -0.0480
     27 C19        -3.8963   -0.7353   -0.3173 C.3       1 <0>         0.1361
     28 C20        -4.8366   -0.3685   -1.4364 C.ar      1 <0>        -0.1060
     29 C21        -4.9234   -1.1735   -2.5561 C.ar      1 <0>        -0.1463
     30 C22        -5.7884   -0.8379   -3.5880 C.ar      1 <0>         0.1391
     31 C23        -6.5658    0.3062   -3.4948 C.ar      1 <0>        -0.1577
     32 C24        -6.4769    1.1123   -2.3705 C.ar      1 <0>         0.1380
     33 C25        -5.6145    0.7693   -1.3387 C.ar      1 <0>        -0.1412
     34 O5         -7.2373    2.2346   -2.2764 O.3       1 <0>        -0.4932
     35 O6         -5.8731   -1.6298   -4.6891 O.3       1 <0>        -0.4935
     36 O7         -3.8395   -2.1575   -0.1898 O.3       1 <0>        -0.5452
     37 H1          0.7184    1.8813   -0.0681 H         1 <0>         0.1097
     38 H2         -0.9760    1.8365   -0.6113 H         1 <0>         0.0839
     39 H3         -0.5994    1.8605    1.1282 H         1 <0>         0.0850
     40 H4          0.0815   -0.3976   -0.8094 H         1 <0>         0.1417
     41 H5          1.7153   -0.0546    1.0680 H         1 <0>         0.1254
     42 H6          0.3712   -0.2226    2.2228 H         1 <0>         0.1010
     43 H7         -0.7352   -2.3605    2.5391 H         1 <0>         0.1330
     44 H8         -0.5293   -4.8108    2.4289 H         1 <0>         0.1883
     45 H9          2.7110   -4.4067   -0.3288 H         1 <0>         0.1531
     46 H10         2.4918   -1.9575   -0.2207 H         1 <0>         0.1467
     47 H11         3.9194   -7.8169    1.6818 H         1 <0>         0.1454
     48 H12         5.6351   -8.0540    3.4320 H         1 <0>         0.1398
     49 H13         5.4669   -9.8735    5.0826 H         1 <0>         0.1391
     50 H14         3.5825  -11.4553    4.9835 H         1 <0>         0.1423
     51 H15         1.8622  -11.2132    3.2384 H         1 <0>         0.1487
     52 H16        -1.5423   -1.5565    0.5537 H         1 <0>         0.4290
     53 H17        -2.5424    0.8900   -0.7245 H         1 <0>         0.1493
     54 H18        -2.1401   -0.6291   -1.5604 H         1 <0>         0.1381
     55 H19        -4.2552   -0.3009    0.6158 H         1 <0>         0.1354
     56 H20        -4.3173   -2.0645   -2.6283 H         1 <0>         0.1319
     57 H21        -7.2394    0.5692   -4.2971 H         1 <0>         0.1449
     58 H22        -5.5481    1.3946   -0.4606 H         1 <0>         0.1378
     59 H23        -8.0999    2.0918   -1.8632 H         1 <0>         0.4026
     60 H24        -6.5397   -2.3271   -4.6218 H         1 <0>         0.4027
     61 H25        -3.5278   -2.6115   -0.9847 H         1 <0>         0.3887
     62 H26        -1.9147   -0.1502    1.3274 H         1 <0>         0.4260
@<TRIPOS>BOND
     1    1    2 1
     2    1   37 1
     3    1   38 1
     4    1   39 1
     5    2    3 1
     6    2   25 1
     7    2   40 1
     8    3    4 1
     9    3   41 1
    10    3   42 1
    11    4    9 ar
    12    4    5 ar
    13    5    6 ar
    14    5   43 1
    15    6    7 ar
    16    6   44 1
    17    7    8 ar
    18    7   10 1
    19    8    9 ar
    20    8   45 1
    21    9   46 1
    22   10   11 1
    23   11   15 2
    24   11   12 1
    25   12   13 2
    26   12   16 1
    27   13   14 1
    28   14   15 1
    29   16   17 2
    30   16   18 2
    31   16   19 1
    32   19   24 ar
    33   19   20 ar
    34   20   21 ar
    35   20   47 1
    36   21   22 ar
    37   21   48 1
    38   22   23 ar
    39   22   49 1
    40   23   24 ar
    41   23   50 1
    42   24   51 1
    43   25   26 1
    44   25   52 1
    45   25   62 1
    46   26   27 1
    47   26   53 1
    48   26   54 1
    49   27   28 1
    50   27   36 1
    51   27   55 1
    52   28   33 ar
    53   28   29 ar
    54   29   30 ar
    55   29   56 1
    56   30   31 ar
    57   30   35 1
    58   31   32 ar
    59   31   57 1
    60   32   33 ar
    61   32   34 1
    62   33   58 1
    63   34   59 1
    64   35   60 1
    65   36   61 1
@<TRIPOS>MOLECULE
CHEMBL1085013
   68    72     0     0     0
SMALL
USER_CHARGES

@<TRIPOS>ATOM
      1 C1         -0.0187    1.5258    0.0104 C.3       1 <0>        -0.1456
      2 C2          0.0021   -0.0041    0.0020 C.3       1 <0>        -0.0508
      3 C3          0.7421   -0.5109    1.2415 C.3       1 <0>        -0.1451
      4 C4         -1.4117   -0.5257    0.0127 C.ar      1 <0>        -0.0969
      5 C5         -2.2592   -0.2048    1.0557 C.ar      1 <0>        -0.0767
      6 C6         -3.5561   -0.6834    1.0663 C.ar      1 <0>        -0.1437
      7 C7         -4.0087   -1.4838    0.0335 C.ar      1 <0>        -0.0851
      8 C8         -3.1656   -1.8071   -1.0117 C.ar      1 <0>        -0.2059
      9 C9         -1.8651   -1.3237   -1.0273 C.ar      1 <0>         0.1179
     10 O1         -1.0353   -1.6358   -2.0574 O.3       1 <0>        -0.2990
     11 C10        -1.5698   -2.4619   -3.0937 C.3       1 <0>         0.0302
     12 C11        -0.4971   -2.7036   -4.1575 C.3       1 <0>         0.0858
     13 C12        -1.1042   -3.4825   -5.3261 C.3       1 <0>        -0.0432
     14 N1         -0.0743   -3.7146   -6.3476 N.4       1 <0>        -0.3794
     15 C13         0.3548   -2.4279   -6.9088 C.3       1 <0>        -0.0044
     16 C14         1.4846   -2.6574   -7.9150 C.3       1 <0>        -0.1647
     17 C15         0.9813   -3.5648   -9.0412 C.3       1 <0>         0.1183
     18 C16         0.4674   -4.8748   -8.4368 C.3       1 <0>        -0.1673
     19 C17        -0.6247   -4.5632   -7.4113 C.3       1 <0>         0.0025
     20 N2          2.0793   -3.8504   -9.9680 N.am      1 <0>        -0.5584
     21 C18         3.1768   -4.4748   -9.5001 C.2       1 <0>         0.5835
     22 O2          3.2399   -4.7890   -8.3269 O.2       1 <0>        -0.5018
     23 C19         4.2991   -4.7793  -10.3999 C.ar      1 <0>        -0.1792
     24 C20         5.4478   -5.4207   -9.9605 C.ar      1 <0>         0.0078
     25 C21         6.4826   -5.6865  -10.8496 C.ar      1 <0>        -0.1441
     26 C22         6.4043   -5.3306  -12.1655 C.ar      1 <0>        -0.0335
     27 C23         5.2573   -4.6789  -12.6512 C.ar      1 <0>        -0.0805
     28 C24         4.2002   -4.4035  -11.7588 C.ar      1 <0>         0.0136
     29 C25         3.0340   -3.7491  -12.2163 C.ar      1 <0>        -0.1765
     30 C26         2.9465   -3.3842  -13.5517 C.ar      1 <0>         0.0080
     31 C27         3.9948   -3.6615  -14.4213 C.ar      1 <0>        -0.1416
     32 C28         5.1286   -4.2929  -13.9968 C.ar      1 <0>        -0.0356
     33 C29         1.9515   -3.4838  -11.2573 C.2       1 <0>         0.5763
     34 O3          0.9369   -2.9262  -11.6297 O.2       1 <0>        -0.4884
     35 O4          0.5761   -3.4568   -3.5893 O.3       1 <0>        -0.5412
     36 H1          1.0039    1.9031    0.0027 H         1 <0>         0.0605
     37 H2         -0.5459    1.8868   -0.8726 H         1 <0>         0.0536
     38 H3         -0.5289    1.8773    0.9072 H         1 <0>         0.0581
     39 H4          0.5123   -0.3556   -0.8948 H         1 <0>         0.0825
     40 H5          0.7568   -1.6008    1.2356 H         1 <0>         0.0543
     41 H6          1.7647   -0.1336    1.2338 H         1 <0>         0.0605
     42 H7          0.2319   -0.1594    2.1383 H         1 <0>         0.0576
     43 H8         -1.9081    0.4202    1.8635 H         1 <0>         0.1325
     44 H9         -4.2168   -0.4320    1.8828 H         1 <0>         0.1284
     45 H10        -5.0222   -1.8568    0.0443 H         1 <0>         0.1272
     46 H11        -3.5195   -2.4323   -1.8181 H         1 <0>         0.1230
     47 H12        -1.8844   -3.4163   -2.6715 H         1 <0>         0.0758
     48 H13        -2.4271   -1.9654   -3.5483 H         1 <0>         0.0803
     49 H14        -0.1190   -1.7463   -4.5163 H         1 <0>         0.1341
     50 H15        -1.4822   -4.4398   -4.9673 H         1 <0>         0.1401
     51 H16        -1.9228   -2.9080   -5.7595 H         1 <0>         0.1454
     52 H17        -0.4874   -1.9521   -7.4111 H         1 <0>         0.1335
     53 H18         0.7097   -1.7820   -6.1057 H         1 <0>         0.1386
     54 H19         1.8005   -1.7011   -8.3318 H         1 <0>         0.1157
     55 H20         2.3275   -3.1329   -7.4136 H         1 <0>         0.1143
     56 H21         0.1717   -3.0677   -9.5756 H         1 <0>         0.1284
     57 H22         0.0563   -5.5034   -9.2267 H         1 <0>         0.1159
     58 H23         1.2893   -5.3963   -7.9463 H         1 <0>         0.1146
     59 H24        -0.9929   -5.4937   -6.9792 H         1 <0>         0.1376
     60 H25        -1.4460   -4.0419   -7.9029 H         1 <0>         0.1332
     61 H26         5.5386   -5.7139   -8.9250 H         1 <0>         0.1470
     62 H27         7.3702   -6.1863  -10.4909 H         1 <0>         0.1443
     63 H28         7.2242   -5.5497  -12.8336 H         1 <0>         0.1464
     64 H29         2.0618   -2.8839  -13.9166 H         1 <0>         0.1481
     65 H30         3.9103   -3.3706  -15.4579 H         1 <0>         0.1450
     66 H31         5.9273   -4.4952  -14.6951 H         1 <0>         0.1466
     67 H32         0.3120   -4.3224   -3.2487 H         1 <0>         0.3896
     68 H33         0.7178   -4.1763   -5.9263 H         1 <0>         0.4317
@<TRIPOS>BOND
     1    1    2 1
     2    1   36 1
     3    1   37 1
     4    1   38 1
     5    2    3 1
     6    2    4 1
     7    2   39 1
     8    3   40 1
     9    3   41 1
    10    3   42 1
    11    4    9 ar
    12    4    5 ar
    13    5    6 ar
    14    5   43 1
    15    6    7 ar
    16    6   44 1
    17    7    8 ar
    18    7   45 1
    19    8    9 ar
    20    8   46 1
    21    9   10 1
    22   10   11 1
    23   11   12 1
    24   11   47 1
    25   11   48 1
    26   12   13 1
    27   12   35 1
    28   12   49 1
    29   13   14 1
    30   13   50 1
    31   13   51 1
    32   14   19 1
    33   14   15 1
    34   14   68 1
    35   15   16 1
    36   15   52 1
    37   15   53 1
    38   16   17 1
    39   16   54 1
    40   16   55 1
    41   17   18 1
    42   17   20 1
    43   17   56 1
    44   18   19 1
    45   18   57 1
    46   18   58 1
    47   19   59 1
    48   19   60 1
    49   20   33 am
    50   20   21 am
    51   21   22 2
    52   21   23 1
    53   23   28 ar
    54   23   24 ar
    55   24   25 ar
    56   24   61 1
    57   25   26 ar
    58   25   62 1
    59   26   27 ar
    60   26   63 1
    61   27   32 ar
    62   27   28 ar
    63   28   29 ar
    64   29   30 ar
    65   29   33 1
    66   30   31 ar
    67   30   64 1
    68   31   32 ar
    69   31   65 1
    70   32   66 1
    71   33   34 2
    72   35   67 1
@<TRIPOS>MOLECULE
CHEMBL1085013
   68    72     0     0     0
SMALL
USER_CHARGES

@<TRIPOS>ATOM
      1 C1         -3.2725   -8.7141   -0.1962 C.3       1 <0>        -0.1452
      2 C2         -3.8158   -8.2153   -1.5366 C.3       1 <0>        -0.0508
      3 C3         -4.8115   -9.2342   -2.0944 C.3       1 <0>        -0.1455
      4 C4         -4.5096   -6.8925   -1.3366 C.ar      1 <0>        -0.0969
      5 C5         -5.5890   -6.8007   -0.4791 C.ar      1 <0>        -0.0767
      6 C6         -6.2262   -5.5876   -0.2955 C.ar      1 <0>        -0.1437
      7 C7         -5.7850   -4.4633   -0.9689 C.ar      1 <0>        -0.0851
      8 C8         -4.7061   -4.5498   -1.8269 C.ar      1 <0>        -0.2060
      9 C9         -4.0615   -5.7650   -2.0089 C.ar      1 <0>         0.1179
     10 O1         -2.9962   -5.8515   -2.8483 O.3       1 <0>        -0.2989
     11 C10        -2.5900   -4.6501   -3.5069 C.3       1 <0>         0.0302
     12 C11        -1.3849   -4.9423   -4.4031 C.3       1 <0>         0.0859
     13 C12        -1.0275   -3.6875   -5.2023 C.3       1 <0>        -0.0433
     14 N1          0.1201   -3.9724   -6.0739 N.4       1 <0>        -0.3796
     15 C13         0.5589   -2.7316   -6.7239 C.3       1 <0>         0.0024
     16 C14         1.8038   -3.0072   -7.5699 C.3       1 <0>        -0.1664
     17 C15         1.4680   -4.0531   -8.6368 C.3       1 <0>         0.1184
     18 C16         0.9412   -5.3168   -7.9508 C.3       1 <0>        -0.1658
     19 C17        -0.2718   -4.9557   -7.0907 C.3       1 <0>        -0.0040
     20 N2          2.6747   -4.3777   -9.4015 N.am      1 <0>        -0.5585
     21 C18         3.7358   -4.8917   -8.7511 C.2       1 <0>         0.5834
     22 O2          3.6777   -5.0767   -7.5505 O.2       1 <0>        -0.5018
     23 C19         4.9642   -5.2310   -9.4844 C.ar      1 <0>        -0.1792
     24 C20         6.0801   -5.7621   -8.8547 C.ar      1 <0>         0.0078
     25 C21         7.2188   -6.0663   -9.5913 C.ar      1 <0>        -0.1441
     26 C22         7.2765   -5.8558  -10.9391 C.ar      1 <0>        -0.0335
     27 C23         6.1672   -5.3190  -11.6156 C.ar      1 <0>        -0.0805
     28 C24         5.0055   -5.0061  -10.8792 C.ar      1 <0>         0.0135
     29 C25         3.8738   -4.4648  -11.5302 C.ar      1 <0>        -0.1765
     30 C26         3.9242   -4.2478  -12.8993 C.ar      1 <0>         0.0079
     31 C27         5.0746   -4.5607  -13.6139 C.ar      1 <0>        -0.1416
     32 C28         6.1770   -5.0843  -13.0016 C.ar      1 <0>        -0.0356
     33 C29         2.6797   -4.1561  -10.7298 C.2       1 <0>         0.5764
     34 O3          1.6927   -3.6942  -11.2695 O.2       1 <0>        -0.4883
     35 O4         -0.2710   -5.3249   -3.5938 O.3       1 <0>        -0.5411
     36 H1         -2.7707   -9.6708   -0.3409 H         1 <0>         0.0605
     37 H2         -2.5631   -7.9881    0.2012 H         1 <0>         0.0544
     38 H3         -4.0967   -8.8387    0.5062 H         1 <0>         0.0577
     39 H4         -2.9916   -8.0907   -2.2390 H         1 <0>         0.0825
     40 H5         -5.1986   -8.8789   -3.0493 H         1 <0>         0.0536
     41 H6         -4.3097  -10.1910   -2.2390 H         1 <0>         0.0605
     42 H7         -5.6357   -9.3588   -1.3920 H         1 <0>         0.0580
     43 H8         -5.9355   -7.6773    0.0480 H         1 <0>         0.1325
     44 H9         -7.0702   -5.5181    0.3747 H         1 <0>         0.1284
     45 H10        -6.2847   -3.5169   -0.8241 H         1 <0>         0.1272
     46 H11        -4.3619   -3.6714   -2.3527 H         1 <0>         0.1230
     47 H12        -3.4123   -4.2733   -4.1151 H         1 <0>         0.0803
     48 H13        -2.3164   -3.9023   -2.7625 H         1 <0>         0.0759
     49 H14        -1.6306   -5.7525   -5.0896 H         1 <0>         0.1338
     50 H15        -1.8810   -3.3892   -5.8112 H         1 <0>         0.1454
     51 H16        -0.7710   -2.8804   -4.5160 H         1 <0>         0.1402
     52 H17        -0.2391   -2.3556   -7.3642 H         1 <0>         0.1333
     53 H18         0.7944   -1.9872   -5.9634 H         1 <0>         0.1376
     54 H19         2.1269   -2.0851   -8.0531 H         1 <0>         0.1161
     55 H20         2.6025   -3.3830   -6.9304 H         1 <0>         0.1135
     56 H21         0.7053   -3.6577   -9.3076 H         1 <0>         0.1285
     57 H22         0.6477   -6.0457   -8.7062 H         1 <0>         0.1156
     58 H23         1.7220   -5.7406   -7.3192 H         1 <0>         0.1155
     59 H24        -0.6496   -5.8532   -6.6009 H         1 <0>         0.1382
     60 H25        -1.0521   -4.5323   -7.7232 H         1 <0>         0.1336
     61 H26         6.0642   -5.9394   -7.7894 H         1 <0>         0.1470
     62 H27         8.0791   -6.4790   -9.0852 H         1 <0>         0.1443
     63 H28         8.1750   -6.1014  -11.4858 H         1 <0>         0.1464
     64 H29         3.0675   -3.8351  -13.4113 H         1 <0>         0.1481
     65 H30         5.0970   -4.3854  -14.6793 H         1 <0>         0.1450
     66 H31         7.0572   -5.3175  -13.5823 H         1 <0>         0.1466
     67 H32         0.0033   -4.6501   -2.9579 H         1 <0>         0.3897
     68 H33         0.8769   -4.3456   -5.5206 H         1 <0>         0.4319
@<TRIPOS>BOND
     1    1    2 1
     2    1   36 1
     3    1   37 1
     4    1   38 1
     5    2    3 1
     6    2    4 1
     7    2   39 1
     8    3   40 1
     9    3   41 1
    10    3   42 1
    11    4    9 ar
    12    4    5 ar
    13    5    6 ar
    14    5   43 1
    15    6    7 ar
    16    6   44 1
    17    7    8 ar
    18    7   45 1
    19    8    9 ar
    20    8   46 1
    21    9   10 1
    22   10   11 1
    23   11   12 1
    24   11   47 1
    25   11   48 1
    26   12   13 1
    27   12   35 1
    28   12   49 1
    29   13   14 1
    30   13   50 1
    31   13   51 1
    32   14   19 1
    33   14   15 1
    34   14   68 1
    35   15   16 1
    36   15   52 1
    37   15   53 1
    38   16   17 1
    39   16   54 1
    40   16   55 1
    41   17   18 1
    42   17   20 1
    43   17   56 1
    44   18   19 1
    45   18   57 1
    46   18   58 1
    47   19   59 1
    48   19   60 1
    49   20   33 am
    50   20   21 am
    51   21   22 2
    52   21   23 1
    53   23   28 ar
    54   23   24 ar
    55   24   25 ar
    56   24   61 1
    57   25   26 ar
    58   25   62 1
    59   26   27 ar
    60   26   63 1
    61   27   32 ar
    62   27   28 ar
    63   28   29 ar
    64   29   30 ar
    65   29   33 1
    66   30   31 ar
    67   30   64 1
    68   31   32 ar
    69   31   65 1
    70   32   66 1
    71   33   34 2
    72   35   67 1
@<TRIPOS>MOLECULE
CHEMBL506518
   86    88     0     0     0
SMALL
USER_CHARGES

@<TRIPOS>ATOM
      1 C1         -0.0167    1.3779    0.0096 C.ar      1 <0>        -0.1347
      2 C2          1.1711    2.0854    0.0021 C.ar      1 <0>        -0.0614
      3 C3          2.3773    1.4107   -0.0130 C.ar      1 <0>        -0.1024
      4 C4          2.3960    0.0283   -0.0201 C.ar      1 <0>        -0.0187
      5 C5          1.2086   -0.6790   -0.0117 C.ar      1 <0>        -0.6718
      6 C6          0.0021   -0.0041    0.0020 C.ar      1 <0>        -0.0237
      7 S1          1.2325   -2.4408   -0.0219 S.o2      1 <0>         2.6882
      8 O1         -0.0129   -2.8607   -0.5621 O.2       1 <0>        -0.9517
      9 O2          2.4774   -2.8268   -0.5880 O.2       1 <0>        -0.9533
     10 N1          1.2558   -2.9393    1.5571 N.pl3     1 <0>        -0.9955
     11 C7          2.5303   -3.1416    2.2596 C.3       1 <0>         0.1187
     12 C8          2.5128   -2.3273    3.5570 C.3       1 <0>        -0.1354
     13 C9          1.2768   -2.7062    4.3759 C.3       1 <0>        -0.1184
     14 C10         0.0132   -2.3729    3.5794 C.3       1 <0>        -0.1366
     15 C11         0.0022   -3.1819    2.2841 C.3       1 <0>         0.1182
     16 C12         3.6720    2.1819   -0.0222 C.3       1 <0>        -0.0818
     17 C13         4.1244    2.4362    1.4171 C.3       1 <0>        -0.1117
     18 C14         5.4389    3.2191    1.4077 C.3       1 <0>        -0.1196
     19 C15         5.8913    3.4734    2.8470 C.3       1 <0>         0.0631
     20 O3          7.1190    4.2047    2.8382 O.3       1 <0>        -0.3898
     21 C16         7.6312    4.4960    4.1401 C.3       1 <0>         0.0611
     22 C17         8.9404    5.2771    4.0099 C.3       1 <0>        -0.1207
     23 C18         9.4889    5.5890    5.4038 C.3       1 <0>        -0.1184
     24 C19        10.7980    6.3701    5.2736 C.3       1 <0>        -0.1169
     25 C20        11.3465    6.6820    6.6675 C.3       1 <0>        -0.1501
     26 C21        12.6557    7.4631    6.5373 C.3       1 <0>        -0.0105
     27 N2         13.1823    7.7626    7.8756 N.4       1 <0>        -0.5057
     28 C22        14.4392    8.5126    7.7506 C.3       1 <0>        -0.0426
     29 C23        14.9877    8.8245    9.1445 C.3       1 <0>         0.1378
     30 H1         15.1721    7.8928    9.6792 H         1 <0>         0.1325
     31 C24        16.2772    9.5938    9.0163 C.ar      1 <0>        -0.1555
     32 C25        16.2491   10.9686    8.8700 C.ar      1 <0>        -0.0897
     33 C26        17.4295   11.6760    8.7519 C.ar      1 <0>        -0.1374
     34 C27        18.6443   11.0061    8.7805 C.ar      1 <0>         0.1337
     35 C28        18.6698    9.6270    8.9278 C.ar      1 <0>        -0.1102
     36 C29        17.4863    8.9246    9.0508 C.ar      1 <0>        -0.0623
     37 C30        19.9873    8.8962    8.9593 C.3       1 <0>         0.1174
     38 O4         19.7515    7.4958    9.1182 O.3       1 <0>        -0.5757
     39 O5         19.8071   11.6998    8.6641 O.3       1 <0>        -0.4942
     40 O6         14.0355    9.6078    9.8668 O.3       1 <0>        -0.5480
     41 H2         -0.9591    1.9051    0.0259 H         1 <0>         0.1342
     42 H3          1.1565    3.1653    0.0076 H         1 <0>         0.1303
     43 H4          3.3385   -0.4989   -0.0326 H         1 <0>         0.1374
     44 H5         -0.9258   -0.5567    0.0079 H         1 <0>         0.1392
     45 H6          2.6548   -4.1989    2.4935 H         1 <0>         0.0778
     46 H7          3.3528   -2.8056    1.6283 H         1 <0>         0.0895
     47 H8          3.4119   -2.5433    4.1342 H         1 <0>         0.0754
     48 H9          2.4795   -1.2641    3.3188 H         1 <0>         0.0654
     49 H10         1.2982   -3.7743    4.5927 H         1 <0>         0.0668
     50 H11         1.2749   -2.1461    5.3110 H         1 <0>         0.0647
     51 H12        -0.8669   -2.6213    4.1726 H         1 <0>         0.0779
     52 H13         0.0034   -1.3093    3.3410 H         1 <0>         0.0659
     53 H14        -0.8427   -2.8724    1.6689 H         1 <0>         0.0911
     54 H15        -0.0840   -4.2425    2.5200 H         1 <0>         0.0778
     55 H16         4.4344    1.6057   -0.5463 H         1 <0>         0.0792
     56 H17         3.5236    3.1349   -0.5302 H         1 <0>         0.0784
     57 H18         3.3620    3.0125    1.9412 H         1 <0>         0.0664
     58 H19         4.2727    1.4832    1.9250 H         1 <0>         0.0669
     59 H20         6.2013    2.6429    0.8836 H         1 <0>         0.0738
     60 H21         5.2905    4.1721    0.8997 H         1 <0>         0.0729
     61 H22         5.1289    4.0497    3.3711 H         1 <0>         0.0490
     62 H23         6.0396    2.5205    3.3549 H         1 <0>         0.0496
     63 H24         6.9049    5.0935    4.6910 H         1 <0>         0.0480
     64 H25         7.8157    3.5643    4.6748 H         1 <0>         0.0483
     65 H26         9.6667    4.6796    3.4590 H         1 <0>         0.0735
     66 H27         8.7560    6.2088    3.4752 H         1 <0>         0.0731
     67 H28         8.7625    6.1865    5.9547 H         1 <0>         0.0687
     68 H29         9.6733    4.6573    5.9385 H         1 <0>         0.0689
     69 H30        11.5244    5.7726    4.7227 H         1 <0>         0.0762
     70 H31        10.6136    7.3018    4.7389 H         1 <0>         0.0758
     71 H32        10.6202    7.2795    7.2184 H         1 <0>         0.0883
     72 H33        11.5309    5.7503    7.2022 H         1 <0>         0.0886
     73 H34        13.3820    6.8656    5.9864 H         1 <0>         0.1326
     74 H35        12.4712    8.3948    6.0026 H         1 <0>         0.1316
     75 H36        12.5099    8.3157    8.3856 H         1 <0>         0.4314
     76 H37        15.1656    7.9151    7.1997 H         1 <0>         0.1450
     77 H38        14.2548    9.4443    7.2159 H         1 <0>         0.1366
     78 H39        15.3033   11.4897    8.8478 H         1 <0>         0.1275
     79 H40        17.4070   12.7497    8.6370 H         1 <0>         0.1403
     80 H41        17.5058    7.8513    9.1695 H         1 <0>         0.1419
     81 H42        20.5221    9.0710    8.0257 H         1 <0>         0.0707
     82 H43        20.5853    9.2610    9.7944 H         1 <0>         0.0654
     83 H44        20.5574    6.9620    9.1467 H         1 <0>         0.3933
     84 H45        20.1751   11.9951    9.5081 H         1 <0>         0.4012
     85 H46        13.8230   10.4531    9.4480 H         1 <0>         0.3878
     86 H47        13.3530    6.9001    8.3706 H         1 <0>         0.4294
@<TRIPOS>BOND
     1    1    6 ar
     2    1    2 ar
     3    1   41 1
     4    2    3 ar
     5    2   42 1
     6    3    4 ar
     7    3   16 1
     8    4    5 ar
     9    4   43 1
    10    5    6 ar
    11    5    7 1
    12    6   44 1
    13    7    8 2
    14    7    9 2
    15    7   10 1
    16   10   15 1
    17   10   11 1
    18   11   12 1
    19   11   45 1
    20   11   46 1
    21   12   13 1
    22   12   47 1
    23   12   48 1
    24   13   14 1
    25   13   49 1
    26   13   50 1
    27   14   15 1
    28   14   51 1
    29   14   52 1
    30   15   53 1
    31   15   54 1
    32   16   17 1
    33   16   55 1
    34   16   56 1
    35   17   18 1
    36   17   57 1
    37   17   58 1
    38   18   19 1
    39   18   59 1
    40   18   60 1
    41   19   20 1
    42   19   61 1
    43   19   62 1
    44   20   21 1
    45   21   22 1
    46   21   63 1
    47   21   64 1
    48   22   23 1
    49   22   65 1
    50   22   66 1
    51   23   24 1
    52   23   67 1
    53   23   68 1
    54   24   25 1
    55   24   69 1
    56   24   70 1
    57   25   26 1
    58   25   71 1
    59   25   72 1
    60   26   27 1
    61   26   73 1
    62   26   74 1
    63   27   28 1
    64   27   75 1
    65   27   86 1
    66   28   29 1
    67   28   76 1
    68   28   77 1
    69   29   30 1
    70   29   31 1
    71   29   40 1
    72   31   36 ar
    73   31   32 ar
    74   32   33 ar
    75   32   78 1
    76   33   34 ar
    77   33   79 1
    78   34   35 ar
    79   34   39 1
    80   35   36 ar
    81   35   37 1
    82   36   80 1
    83   37   38 1
    84   37   81 1
    85   37   82 1
    86   38   83 1
    87   39   84 1
    88   40   85 1
@<TRIPOS>MOLECULE
CHEMBL500782
   89    91     0     0     0
SMALL
USER_CHARGES

@<TRIPOS>ATOM
      1 C1         -0.0167    1.3779    0.0096 C.ar      1 <0>        -0.1343
      2 C2          1.1711    2.0854    0.0021 C.ar      1 <0>        -0.0600
      3 C3          2.3773    1.4107   -0.0130 C.ar      1 <0>        -0.1023
      4 C4          2.3960    0.0283   -0.0201 C.ar      1 <0>        -0.0162
      5 C5          1.2086   -0.6790   -0.0117 C.ar      1 <0>        -0.6710
      6 C6          0.0021   -0.0041    0.0020 C.ar      1 <0>        -0.0237
      7 S1          1.2325   -2.4408   -0.0219 S.o2      1 <0>         2.6906
      8 O1         -0.0129   -2.8607   -0.5621 O.2       1 <0>        -0.9530
      9 O2          2.4774   -2.8268   -0.5880 O.2       1 <0>        -0.9577
     10 N1          1.2558   -2.9393    1.5571 N.pl3     1 <0>        -1.1121
     11 C7          0.1111   -2.6642    2.4290 C.3       1 <0>         0.1478
     12 C8          0.3657   -1.3757    3.2137 C.3       1 <0>        -0.1405
     13 C9         -0.8298   -1.0884    4.1243 C.3       1 <0>        -0.1182
     14 C10        -1.0183   -2.2512    5.1006 C.3       1 <0>        -0.1228
     15 C11        -1.2729   -3.5398    4.3159 C.3       1 <0>        -0.1201
     16 C12        -0.0775   -3.8271    3.4053 C.3       1 <0>        -0.1224
     17 C13         3.6720    2.1819   -0.0222 C.3       1 <0>        -0.0819
     18 C14         4.1244    2.4362    1.4171 C.3       1 <0>        -0.1119
     19 C15         5.4389    3.2191    1.4077 C.3       1 <0>        -0.1196
     20 C16         5.8913    3.4734    2.8470 C.3       1 <0>         0.0630
     21 O3          7.1190    4.2047    2.8382 O.3       1 <0>        -0.3899
     22 C17         7.6312    4.4960    4.1401 C.3       1 <0>         0.0611
     23 C18         8.9404    5.2771    4.0099 C.3       1 <0>        -0.1206
     24 C19         9.4889    5.5890    5.4038 C.3       1 <0>        -0.1184
     25 C20        10.7980    6.3701    5.2736 C.3       1 <0>        -0.1169
     26 C21        11.3465    6.6820    6.6675 C.3       1 <0>        -0.1501
     27 C22        12.6557    7.4631    6.5373 C.3       1 <0>        -0.0105
     28 N2         13.1823    7.7626    7.8756 N.4       1 <0>        -0.5057
     29 C23        14.4392    8.5126    7.7506 C.3       1 <0>        -0.0427
     30 C24        14.9877    8.8245    9.1445 C.3       1 <0>         0.1378
     31 H1         15.1721    7.8928    9.6792 H         1 <0>         0.1325
     32 C25        16.2772    9.5938    9.0163 C.ar      1 <0>        -0.1555
     33 C26        16.2491   10.9686    8.8700 C.ar      1 <0>        -0.0897
     34 C27        17.4295   11.6760    8.7519 C.ar      1 <0>        -0.1374
     35 C28        18.6443   11.0061    8.7805 C.ar      1 <0>         0.1337
     36 C29        18.6698    9.6270    8.9278 C.ar      1 <0>        -0.1102
     37 C30        17.4863    8.9246    9.0508 C.ar      1 <0>        -0.0623
     38 C31        19.9873    8.8962    8.9593 C.3       1 <0>         0.1174
     39 O4         19.7515    7.4958    9.1182 O.3       1 <0>        -0.5757
     40 O5         19.8071   11.6998    8.6641 O.3       1 <0>        -0.4942
     41 O6         14.0355    9.6078    9.8668 O.3       1 <0>        -0.5480
     42 H2         -0.9591    1.9051    0.0259 H         1 <0>         0.1342
     43 H3          1.1565    3.1653    0.0076 H         1 <0>         0.1302
     44 H4          3.3385   -0.4989   -0.0326 H         1 <0>         0.1385
     45 H5         -0.9258   -0.5567    0.0079 H         1 <0>         0.1395
     46 H6          2.0273   -3.4135    1.9047 H         1 <0>         0.4190
     47 H7         -0.7877   -2.5491    1.8232 H         1 <0>         0.0931
     48 H8          1.2645   -1.4908    3.8196 H         1 <0>         0.0700
     49 H9          0.5000   -0.5472    2.5182 H         1 <0>         0.0676
     50 H10        -0.6484   -0.1704    4.6834 H         1 <0>         0.0653
     51 H11        -1.7286   -0.9732    3.5185 H         1 <0>         0.0657
     52 H12        -0.1195   -2.3664    5.7064 H         1 <0>         0.0626
     53 H13        -1.8700   -2.0466    5.7493 H         1 <0>         0.0652
     54 H14        -1.4073   -4.3682    5.0115 H         1 <0>         0.0694
     55 H15        -2.1717   -3.4246    3.7101 H         1 <0>         0.0674
     56 H16        -0.2589   -4.7450    2.8463 H         1 <0>         0.0736
     57 H17         0.8213   -3.9422    4.0112 H         1 <0>         0.0700
     58 H18         4.4344    1.6057   -0.5463 H         1 <0>         0.0792
     59 H19         3.5236    3.1349   -0.5302 H         1 <0>         0.0784
     60 H20         3.3620    3.0125    1.9412 H         1 <0>         0.0666
     61 H21         4.2727    1.4832    1.9250 H         1 <0>         0.0669
     62 H22         6.2013    2.6429    0.8836 H         1 <0>         0.0737
     63 H23         5.2905    4.1721    0.8997 H         1 <0>         0.0729
     64 H24         5.1289    4.0497    3.3711 H         1 <0>         0.0491
     65 H25         6.0396    2.5205    3.3549 H         1 <0>         0.0495
     66 H26         6.9049    5.0935    4.6910 H         1 <0>         0.0481
     67 H27         7.8157    3.5643    4.6748 H         1 <0>         0.0483
     68 H28         9.6667    4.6796    3.4590 H         1 <0>         0.0734
     69 H29         8.7560    6.2088    3.4752 H         1 <0>         0.0732
     70 H30         8.7625    6.1865    5.9547 H         1 <0>         0.0687
     71 H31         9.6733    4.6573    5.9385 H         1 <0>         0.0689
     72 H32        11.5244    5.7726    4.7227 H         1 <0>         0.0762
     73 H33        10.6136    7.3018    4.7389 H         1 <0>         0.0758
     74 H34        10.6202    7.2795    7.2184 H         1 <0>         0.0883
     75 H35        11.5309    5.7503    7.2022 H         1 <0>         0.0886
     76 H36        13.3820    6.8656    5.9864 H         1 <0>         0.1326
     77 H37        12.4712    8.3948    6.0026 H         1 <0>         0.1316
     78 H38        12.5099    8.3157    8.3856 H         1 <0>         0.4314
     79 H39        15.1656    7.9151    7.1997 H         1 <0>         0.1450
     80 H40        14.2548    9.4443    7.2159 H         1 <0>         0.1366
     81 H41        15.3033   11.4897    8.8478 H         1 <0>         0.1275
     82 H42        17.4070   12.7497    8.6370 H         1 <0>         0.1403
     83 H43        17.5058    7.8513    9.1695 H         1 <0>         0.1419
     84 H44        20.5221    9.0710    8.0257 H         1 <0>         0.0707
     85 H45        20.5853    9.2610    9.7944 H         1 <0>         0.0654
     86 H46        20.5574    6.9620    9.1467 H         1 <0>         0.3933
     87 H47        20.1751   11.9951    9.5081 H         1 <0>         0.4012
     88 H48        13.8230   10.4531    9.4480 H         1 <0>         0.3878
     89 H49        13.3530    6.9001    8.3706 H         1 <0>         0.4294
@<TRIPOS>BOND
     1    1    6 ar
     2    1    2 ar
     3    1   42 1
     4    2    3 ar
     5    2   43 1
     6    3    4 ar
     7    3   17 1
     8    4    5 ar
     9    4   44 1
    10    5    6 ar
    11    5    7 1
    12    6   45 1
    13    7    8 2
    14    7    9 2
    15    7   10 1
    16   10   11 1
    17   10   46 1
    18   11   16 1
    19   11   12 1
    20   11   47 1
    21   12   13 1
    22   12   48 1
    23   12   49 1
    24   13   14 1
    25   13   50 1
    26   13   51 1
    27   14   15 1
    28   14   52 1
    29   14   53 1
    30   15   16 1
    31   15   54 1
    32   15   55 1
    33   16   56 1
    34   16   57 1
    35   17   18 1
    36   17   58 1
    37   17   59 1
    38   18   19 1
    39   18   60 1
    40   18   61 1
    41   19   20 1
    42   19   62 1
    43   19   63 1
    44   20   21 1
    45   20   64 1
    46   20   65 1
    47   21   22 1
    48   22   23 1
    49   22   66 1
    50   22   67 1
    51   23   24 1
    52   23   68 1
    53   23   69 1
    54   24   25 1
    55   24   70 1
    56   24   71 1
    57   25   26 1
    58   25   72 1
    59   25   73 1
    60   26   27 1
    61   26   74 1
    62   26   75 1
    63   27   28 1
    64   27   76 1
    65   27   77 1
    66   28   29 1
    67   28   78 1
    68   28   89 1
    69   29   30 1
    70   29   79 1
    71   29   80 1
    72   30   31 1
    73   30   32 1
    74   30   41 1
    75   32   37 ar
    76   32   33 ar
    77   33   34 ar
    78   33   81 1
    79   34   35 ar
    80   34   82 1
    81   35   36 ar
    82   35   40 1
    83   36   37 ar
    84   36   38 1
    85   37   83 1
    86   38   39 1
    87   38   84 1
    88   38   85 1
    89   39   86 1
    90   40   87 1
    91   41   88 1
@<TRIPOS>MOLECULE
CHEMBL317163
   59    62     0     0     0
SMALL
USER_CHARGES

@<TRIPOS>ATOM
      1 C1         -0.0164    1.3568    0.0095 C.ar      1 <0>        -0.0994
      2 C2          1.1685    2.0903    0.0021 C.ar      1 <0>        -0.1193
      3 C3          2.3786    1.4667   -0.0127 C.ar      1 <0>        -0.0919
      4 C4          2.4373    0.0638   -0.0208 C.ar      1 <0>        -0.0666
      5 C5          1.2329   -0.6827   -0.0133 C.ar      1 <0>        -0.0208
      6 C6          0.0021   -0.0041    0.0020 C.ar      1 <0>        -0.1125
      7 C7          1.2917   -2.0866   -0.0208 C.ar      1 <0>        -0.1295
      8 C8          2.5010   -2.7126   -0.0352 C.ar      1 <0>        -0.0845
      9 C9          3.6868   -1.9838   -0.0426 C.ar      1 <0>        -0.2162
     10 C10         3.6713   -0.6172   -0.0357 C.ar      1 <0>         0.1355
     11 O1          4.8369    0.0798   -0.0435 O.3       1 <0>        -0.2974
     12 C11         6.0470   -0.6800   -0.0585 C.3       1 <0>         0.0291
     13 C12         7.2459    0.2705   -0.0655 C.3       1 <0>         0.0852
     14 C13         8.5370   -0.5381   -0.2073 C.3       1 <0>        -0.0406
     15 N1          9.6881    0.3746   -0.2139 N.4       1 <0>        -0.4991
     16 C14        10.9278   -0.4018   -0.3501 C.3       1 <0>        -0.0214
     17 C15        12.1267    0.5487   -0.3570 C.3       1 <0>         0.0946
     18 N2         13.3629   -0.2255   -0.4928 N.am      1 <0>        -0.7328
     19 C16        14.5534    0.4056   -0.5226 C.2       1 <0>         0.5732
     20 O2         14.6014    1.6174   -0.4368 O.2       1 <0>        -0.5167
     21 C17        15.7995   -0.3748   -0.6594 C.ar      1 <0>        -0.1610
     22 C18        15.7459   -1.7669   -0.7639 C.ar      1 <0>        -0.0534
     23 C19        16.9101   -2.4915   -0.8919 C.ar      1 <0>        -0.1455
     24 C20        18.1377   -1.8391   -0.9172 C.ar      1 <0>         0.1823
     25 C21        18.1949   -0.4538   -0.8130 C.ar      1 <0>        -0.1415
     26 C22        17.0345    0.2777   -0.6905 C.ar      1 <0>        -0.0213
     27 N3         19.3180   -2.5783   -1.0473 N.pl3     1 <0>        -0.4235
     28 C23        20.5944   -2.0773   -1.0817 C.2       1 <0>        -0.0536
     29 C24        21.4227   -3.1300   -1.2167 C.2       1 <0>        -0.0108
     30 N4         20.6789   -4.2455   -1.2639 N.2       1 <0>        -0.4756
     31 C25        19.4174   -3.9293   -1.1575 C.2       1 <0>         0.1929
     32 O3          7.2771    1.0069    1.1588 O.3       1 <0>        -0.5424
     33 H1         -0.9633    1.8759    0.0259 H         1 <0>         0.1294
     34 H2          1.1262    3.1695    0.0079 H         1 <0>         0.1278
     35 H3          3.2887    2.0480   -0.0187 H         1 <0>         0.1300
     36 H4         -0.9241   -0.5596    0.0082 H         1 <0>         0.1343
     37 H5          0.3810   -2.6672   -0.0149 H         1 <0>         0.1331
     38 H6          2.5405   -3.7919   -0.0406 H         1 <0>         0.1282
     39 H7          4.6324   -2.5056   -0.0537 H         1 <0>         0.1232
     40 H8          6.0900   -1.3125    0.8281 H         1 <0>         0.0783
     41 H9          6.0731   -1.3042   -0.9517 H         1 <0>         0.0832
     42 H10         7.1565    0.9621   -0.9033 H         1 <0>         0.1375
     43 H11         8.6265   -1.2296    0.6305 H         1 <0>         0.1422
     44 H12         8.5133   -1.0998   -1.1411 H         1 <0>         0.1495
     45 H13         9.6053    1.0147   -0.9895 H         1 <0>         0.4351
     46 H14        11.0172   -1.0933    0.4877 H         1 <0>         0.1411
     47 H15        10.9040   -0.9635   -1.2839 H         1 <0>         0.1417
     48 H16        12.0372    1.2403   -1.1948 H         1 <0>         0.0938
     49 H17        12.1504    1.1104    0.5768 H         1 <0>         0.0938
     50 H18        13.3247   -1.1923   -0.5612 H         1 <0>         0.4074
     51 H19        14.7927   -2.2743   -0.7440 H         1 <0>         0.1338
     52 H20        16.8695   -3.5677   -0.9724 H         1 <0>         0.1429
     53 H21        19.1503    0.0496   -0.8326 H         1 <0>         0.1444
     54 H22        17.0793    1.3541   -0.6145 H         1 <0>         0.1497
     55 H23        20.8800   -1.0380   -1.0140 H         1 <0>         0.1831
     56 H24        22.5001   -3.0843   -1.2766 H         1 <0>         0.1808
     57 H25        18.5908   -4.6243   -1.1599 H         1 <0>         0.2119
     58 H26         7.3557    0.4542    1.9483 H         1 <0>         0.3908
     59 H27         9.7101    0.8945    0.6505 H         1 <0>         0.4374
@<TRIPOS>BOND
     1    1    6 ar
     2    1    2 ar
     3    1   33 1
     4    2    3 ar
     5    2   34 1
     6    3    4 ar
     7    3   35 1
     8    4   10 ar
     9    4    5 ar
    10    5    6 ar
    11    5    7 ar
    12    6   36 1
    13    7    8 ar
    14    7   37 1
    15    8    9 ar
    16    8   38 1
    17    9   10 ar
    18    9   39 1
    19   10   11 1
    20   11   12 1
    21   12   13 1
    22   12   40 1
    23   12   41 1
    24   13   14 1
    25   13   32 1
    26   13   42 1
    27   14   15 1
    28   14   43 1
    29   14   44 1
    30   15   16 1
    31   15   45 1
    32   15   59 1
    33   16   17 1
    34   16   46 1
    35   16   47 1
    36   17   18 1
    37   17   48 1
    38   17   49 1
    39   18   19 am
    40   18   50 1
    41   19   20 2
    42   19   21 1
    43   21   26 ar
    44   21   22 ar
    45   22   23 ar
    46   22   51 1
    47   23   24 ar
    48   23   52 1
    49   24   25 ar
    50   24   27 1
    51   25   26 ar
    52   25   53 1
    53   26   54 1
    54   27   31 1
    55   27   28 1
    56   28   29 2
    57   28   55 1
    58   29   30 1
    59   29   56 1
    60   30   31 2
    61   31   57 1
    62   32   58 1
@<TRIPOS>MOLECULE
CHEMBL317163
   59    62     0     0     0
SMALL
USER_CHARGES

@<TRIPOS>ATOM
      1 C1         -0.0164    1.3568    0.0095 C.ar      1 <0>        -0.0995
      2 C2          1.1685    2.0903    0.0021 C.ar      1 <0>        -0.1193
      3 C3          2.3786    1.4667   -0.0127 C.ar      1 <0>        -0.0919
      4 C4          2.4373    0.0638   -0.0208 C.ar      1 <0>        -0.0666
      5 C5          1.2329   -0.6827   -0.0133 C.ar      1 <0>        -0.0208
      6 C6          0.0021   -0.0041    0.0020 C.ar      1 <0>        -0.1125
      7 C7          1.2917   -2.0866   -0.0208 C.ar      1 <0>        -0.1295
      8 C8          2.5010   -2.7126   -0.0352 C.ar      1 <0>        -0.0845
      9 C9          3.6868   -1.9838   -0.0426 C.ar      1 <0>        -0.2162
     10 C10         3.6713   -0.6172   -0.0357 C.ar      1 <0>         0.1354
     11 O1          4.8369    0.0798   -0.0435 O.3       1 <0>        -0.2974
     12 C11         6.0470   -0.6800   -0.0585 C.3       1 <0>         0.0290
     13 C12         7.2459    0.2705   -0.0655 C.3       1 <0>         0.0854
     14 C13         8.5394   -0.5393    0.0442 C.3       1 <0>        -0.0404
     15 N1          9.6823    0.3766    0.1580 N.4       1 <0>        -0.4996
     16 C14        10.9243   -0.4009    0.2633 C.3       1 <0>        -0.0214
     17 C15        12.1146    0.5530    0.3818 C.3       1 <0>         0.0946
     18 N2         13.3532   -0.2224    0.4868 N.am      1 <0>        -0.7328
     19 C16        14.5372    0.4112    0.6015 C.2       1 <0>         0.5733
     20 O2         14.5774    1.6262    0.6178 O.2       1 <0>        -0.5167
     21 C17        15.7855   -0.3703    0.7073 C.ar      1 <0>        -0.1610
     22 C18        15.7418   -1.7665    0.6829 C.ar      1 <0>        -0.0533
     23 C19        16.9082   -2.4921    0.7814 C.ar      1 <0>        -0.1456
     24 C20        18.1283   -1.8368    0.9049 C.ar      1 <0>         0.1824
     25 C21        18.1756   -0.4474    0.9300 C.ar      1 <0>        -0.1415
     26 C22        17.0138    0.2848    0.8262 C.ar      1 <0>        -0.0213
     27 N3         19.3107   -2.5770    1.0047 N.pl3     1 <0>        -0.4235
     28 C23        20.5797   -2.0732    1.1361 C.2       1 <0>        -0.0536
     29 C24        21.4137   -3.1283    1.1964 C.2       1 <0>        -0.0107
     30 N4         20.6805   -4.2481    1.1049 N.2       1 <0>        -0.4755
     31 C25        19.4193   -3.9318    0.9956 C.2       1 <0>         0.1929
     32 O3          7.2539    1.0183   -1.2832 O.3       1 <0>        -0.5418
     33 H1         -0.9633    1.8759    0.0259 H         1 <0>         0.1294
     34 H2          1.1262    3.1695    0.0079 H         1 <0>         0.1278
     35 H3          3.2887    2.0480   -0.0187 H         1 <0>         0.1300
     36 H4         -0.9241   -0.5596    0.0082 H         1 <0>         0.1343
     37 H5          0.3810   -2.6672   -0.0149 H         1 <0>         0.1331
     38 H6          2.5405   -3.7919   -0.0406 H         1 <0>         0.1282
     39 H7          4.6324   -2.5056   -0.0537 H         1 <0>         0.1232
     40 H8          6.0900   -1.3125    0.8281 H         1 <0>         0.0829
     41 H9          6.0731   -1.3042   -0.9517 H         1 <0>         0.0786
     42 H10         7.1725    0.9542    0.7803 H         1 <0>         0.1365
     43 H11         8.4953   -1.1767    0.9272 H         1 <0>         0.1489
     44 H12         8.6571   -1.1583   -0.8453 H         1 <0>         0.1428
     45 H13         9.7232    0.9667   -0.6595 H         1 <0>         0.4379
     46 H14        10.8801   -1.0383    1.1463 H         1 <0>         0.1417
     47 H15        11.0419   -1.0199   -0.6262 H         1 <0>         0.1412
     48 H16        12.1588    1.1905   -0.5012 H         1 <0>         0.0938
     49 H17        11.9970    1.1720    1.2713 H         1 <0>         0.0937
     50 H18        13.3211   -1.1917    0.4738 H         1 <0>         0.4074
     51 H19        14.7944   -2.2761    0.5873 H         1 <0>         0.1338
     52 H20        16.8751   -3.5714    0.7630 H         1 <0>         0.1429
     53 H21        19.1250    0.0582    1.0264 H         1 <0>         0.1443
     54 H22        17.0517    1.3641    0.8409 H         1 <0>         0.1497
     55 H23        20.8566   -1.0304    1.1820 H         1 <0>         0.1831
     56 H24        22.4876   -3.0814    1.3005 H         1 <0>         0.1808
     57 H25        18.5994   -4.6295    0.9093 H         1 <0>         0.2119
     58 H26         7.3175    0.4730   -2.0792 H         1 <0>         0.3912
     59 H27         9.5734    0.9496    0.9813 H         1 <0>         0.4348
@<TRIPOS>BOND
     1    1    6 ar
     2    1    2 ar
     3    1   33 1
     4    2    3 ar
     5    2   34 1
     6    3    4 ar
     7    3   35 1
     8    4   10 ar
     9    4    5 ar
    10    5    6 ar
    11    5    7 ar
    12    6   36 1
    13    7    8 ar
    14    7   37 1
    15    8    9 ar
    16    8   38 1
    17    9   10 ar
    18    9   39 1
    19   10   11 1
    20   11   12 1
    21   12   13 1
    22   12   40 1
    23   12   41 1
    24   13   14 1
    25   13   32 1
    26   13   42 1
    27   14   15 1
    28   14   43 1
    29   14   44 1
    30   15   16 1
    31   15   45 1
    32   15   59 1
    33   16   17 1
    34   16   46 1
    35   16   47 1
    36   17   18 1
    37   17   48 1
    38   17   49 1
    39   18   19 am
    40   18   50 1
    41   19   20 2
    42   19   21 1
    43   21   26 ar
    44   21   22 ar
    45   22   23 ar
    46   22   51 1
    47   23   24 ar
    48   23   52 1
    49   24   25 ar
    50   24   27 1
    51   25   26 ar
    52   25   53 1
    53   26   54 1
    54   27   31 1
    55   27   28 1
    56   28   29 2
    57   28   55 1
    58   29   30 1
    59   29   56 1
    60   30   31 2
    61   31   57 1
    62   32   58 1
@<TRIPOS>MOLECULE
CHEMBL186676
   70    74     0     0     0
SMALL
USER_CHARGES

@<TRIPOS>ATOM
      1 C1         -0.0187    1.5258    0.0104 C.3       1 <0>        -0.1837
      2 C2          0.0021   -0.0041    0.0020 C.3       1 <0>         0.0276
      3 H1          0.5293   -0.3651    0.8851 H         1 <0>         0.1371
      4 C3          0.7182   -0.4975   -1.2568 C.3       1 <0>        -0.0553
      5 C4          0.8473   -1.9981   -1.2057 C.2       1 <0>        -0.2358
      6 C5          1.9041   -2.6937   -0.7564 C.2       1 <0>         0.1007
      7 N1          1.6592   -4.0349   -0.8646 N.pl3     1 <0>        -0.5747
      8 H2          2.2753   -4.7370   -0.6031 H         1 <0>         0.4266
      9 C6          0.4058   -4.2399   -1.4002 C.ar      1 <0>         0.0751
     10 C7         -0.1590   -2.9739   -1.6310 C.ar      1 <0>        -0.0796
     11 C8         -1.4436   -2.8707   -2.1710 C.ar      1 <0>        -0.1489
     12 C9         -2.1488   -4.0022   -2.4700 C.ar      1 <0>        -0.0756
     13 C10        -1.6006   -5.2565   -2.2421 C.ar      1 <0>        -0.1992
     14 C11        -0.3282   -5.3834   -1.7167 C.ar      1 <0>         0.1431
     15 O1          0.1992   -6.6167   -1.4948 O.3       1 <0>        -0.3131
     16 C12        -0.6108   -7.7410   -1.8437 C.3       1 <0>         0.1045
     17 C13         0.1334   -9.0132   -1.5294 C.ar      1 <0>        -0.1035
     18 C14         0.9492   -9.5906   -2.4844 C.ar      1 <0>        -0.0955
     19 C15         1.6318  -10.7576   -2.1961 C.ar      1 <0>        -0.1229
     20 C16         1.4991  -11.3468   -0.9527 C.ar      1 <0>        -0.1057
     21 C17         0.6840  -10.7689    0.0026 C.ar      1 <0>        -0.1217
     22 C18         0.0047   -9.5996   -0.2842 C.ar      1 <0>        -0.0942
     23 N2         -1.3761   -0.5125    0.0124 N.4       1 <0>        -0.5044
     24 C19        -2.0260   -0.1396    1.2760 C.3       1 <0>        -0.0460
     25 C20        -3.4614   -0.6692    1.2868 C.3       1 <0>         0.1422
     26 H3         -3.4489   -1.7549    1.1913 H         1 <0>         0.1236
     27 C21        -4.1282   -0.2867    2.5830 C.ar      1 <0>        -0.1009
     28 C22        -4.7304    0.9519    2.7108 C.ar      1 <0>        -0.2175
     29 C23        -5.3429    1.3070    3.8984 C.ar      1 <0>        -0.0568
     30 C24        -5.3556    0.4252    4.9614 C.ar      1 <0>        -0.2496
     31 C25        -4.7522   -0.8195    4.8364 C.ar      1 <0>         0.2864
     32 C26        -4.1422   -1.1752    3.6398 C.ar      1 <0>        -0.1665
     33 N3         -4.7632   -1.7137    5.9093 N.2       1 <0>        -1.0869
     34 S1         -5.4963   -1.2903    7.3326 S.o2      1 <0>         2.6401
     35 O2         -4.7381   -0.2187    7.8767 O.2       1 <0>        -1.0184
     36 O3         -6.8855   -1.1771    7.0559 O.2       1 <0>        -1.0164
     37 C27        -5.3120   -2.6498    8.4381 C.2       1 <0>        -0.6793
     38 C28        -4.3177   -2.9005    9.3246 C.2       1 <0>        -0.0395
     39 C29        -4.3826   -4.0436   10.0991 C.2       1 <0>        -0.1836
     40 C30        -5.4385   -4.8801    9.9491 C.2       1 <0>        -0.1614
     41 S2         -6.3904   -4.0507    8.6870 S.3       1 <0>         0.1445
     42 O4         -4.1863   -0.1032    0.1931 O.3       1 <0>        -0.5530
     43 H4          1.0039    1.9031    0.0027 H         1 <0>         0.1035
     44 H5         -0.5459    1.8868   -0.8726 H         1 <0>         0.0811
     45 H6         -0.5289    1.8773    0.9072 H         1 <0>         0.0842
     46 H7          0.1430   -0.2121   -2.1375 H         1 <0>         0.0930
     47 H8          1.7103   -0.0491   -1.3098 H         1 <0>         0.1148
     48 H9          2.8129   -2.2587   -0.3676 H         1 <0>         0.1782
     49 H10        -1.8783   -1.8987   -2.3513 H         1 <0>         0.1187
     50 H11        -3.1416   -3.9196   -2.8869 H         1 <0>         0.1332
     51 H12        -2.1705   -6.1415   -2.4837 H         1 <0>         0.1368
     52 H13        -1.5384   -7.7120   -1.2719 H         1 <0>         0.0768
     53 H14        -0.8395   -7.7076   -2.9089 H         1 <0>         0.0753
     54 H15         1.0529   -9.1303   -3.4558 H         1 <0>         0.1235
     55 H16         2.2686  -11.2091   -2.9424 H         1 <0>         0.1267
     56 H17         2.0319  -12.2589   -0.7277 H         1 <0>         0.1264
     57 H18         0.5800  -11.2294    0.9739 H         1 <0>         0.1277
     58 H19        -0.6292   -9.1461    0.4634 H         1 <0>         0.1252
     59 H20        -1.8879   -0.1129   -0.7598 H         1 <0>         0.4229
     60 H21        -1.4732   -0.5714    2.1102 H         1 <0>         0.1428
     61 H22        -2.0386    0.9461    1.3715 H         1 <0>         0.1379
     62 H23        -4.7219    1.6433    1.8812 H         1 <0>         0.1011
     63 H24        -5.8115    2.2752    3.9951 H         1 <0>         0.1095
     64 H25        -5.8339    0.7034    5.8889 H         1 <0>         0.1022
     65 H26        -3.6756   -2.1439    3.5379 H         1 <0>         0.1147
     66 H27        -3.4871   -2.2174    9.4241 H         1 <0>         0.1425
     67 H28        -3.6033   -4.2670   10.8127 H         1 <0>         0.1384
     68 H29        -5.6509   -5.8061   10.4628 H         1 <0>         0.1906
     69 H30        -4.2382    0.8622    0.2132 H         1 <0>         0.3837
     70 H31        -1.3644   -1.5176   -0.0760 H         1 <0>         0.4272
@<TRIPOS>BOND
     1    1    2 1
     2    1   43 1
     3    1   44 1
     4    1   45 1
     5    2    3 1
     6    2    4 1
     7    2   23 1
     8    4    5 1
     9    4   46 1
    10    4   47 1
    11    5   10 1
    12    5    6 2
    13    6    7 1
    14    6   48 1
    15    7    8 1
    16    7    9 1
    17    9   14 ar
    18    9   10 ar
    19   10   11 ar
    20   11   12 ar
    21   11   49 1
    22   12   13 ar
    23   12   50 1
    24   13   14 ar
    25   13   51 1
    26   14   15 1
    27   15   16 1
    28   16   17 1
    29   16   52 1
    30   16   53 1
    31   17   22 ar
    32   17   18 ar
    33   18   19 ar
    34   18   54 1
    35   19   20 ar
    36   19   55 1
    37   20   21 ar
    38   20   56 1
    39   21   22 ar
    40   21   57 1
    41   22   58 1
    42   23   24 1
    43   23   59 1
    44   23   70 1
    45   24   25 1
    46   24   60 1
    47   24   61 1
    48   25   26 1
    49   25   27 1
    50   25   42 1
    51   27   32 ar
    52   27   28 ar
    53   28   29 ar
    54   28   62 1
    55   29   30 ar
    56   29   63 1
    57   30   31 ar
    58   30   64 1
    59   31   32 ar
    60   31   33 1
    61   32   65 1
    62   33   34 1
    63   34   35 2
    64   34   36 2
    65   34   37 1
    66   37   41 1
    67   37   38 2
    68   38   39 1
    69   38   66 1
    70   39   40 2
    71   39   67 1
    72   40   41 1
    73   40   68 1
    74   42   69 1
@<TRIPOS>MOLECULE
CHEMBL398557
   67    69     0     0     0
SMALL
USER_CHARGES

@<TRIPOS>ATOM
      1 C1         -0.5712    1.9289   -3.1333 C.3       1 <0>         0.0213
      2 O1         -0.2728    0.5450   -3.3282 O.3       1 <0>        -0.2990
      3 C2         -1.2980   -0.3352   -3.1743 C.ar      1 <0>         0.1275
      4 C3         -2.5642    0.1238   -2.8486 C.ar      1 <0>        -0.1649
      5 C4         -3.6054   -0.7723   -2.6929 C.ar      1 <0>        -0.1131
      6 C5         -3.3865   -2.1270   -2.8610 C.ar      1 <0>        -0.1375
      7 C6         -2.1256   -2.5915   -3.1855 C.ar      1 <0>        -0.1364
      8 C7         -1.0790   -1.6982   -3.3491 C.ar      1 <0>         0.1127
      9 O2          0.1607   -2.1530   -3.6742 O.3       1 <0>        -0.2981
     10 C8          0.3116   -3.5646   -3.8379 C.3       1 <0>         0.0232
     11 C9         -4.5249   -3.0994   -2.6897 C.3       1 <0>         0.0874
     12 H1         -4.1260   -4.0970   -2.5054 H         1 <0>         0.1441
     13 C10        -5.3761   -3.1173   -3.9609 C.3       1 <0>        -0.0951
     14 C11        -4.5688   -3.6885   -5.0980 C.ar      1 <0>        -0.0977
     15 C12        -3.7911   -2.8553   -5.8803 C.ar      1 <0>        -0.0960
     16 C13        -3.0506   -3.3792   -6.9234 C.ar      1 <0>        -0.1174
     17 C14        -3.0873   -4.7363   -7.1839 C.ar      1 <0>        -0.1074
     18 C15        -3.8642   -5.5696   -6.4010 C.ar      1 <0>        -0.1169
     19 C16        -4.6014   -5.0463   -5.3552 C.ar      1 <0>        -0.1107
     20 N1         -5.3549   -2.6858   -1.5504 N.4       1 <0>        -0.5027
     21 C17        -6.3756   -3.7099   -1.2908 C.3       1 <0>        -0.0527
     22 C18        -7.1584   -3.3415   -0.0289 C.3       1 <0>         0.0896
     23 H2         -6.4651   -3.1989    0.8000 H         1 <0>         0.1232
     24 C19        -8.1360   -4.4680    0.3119 C.3       1 <0>        -0.0990
     25 C20        -8.8185   -4.1621    1.6202 C.ar      1 <0>        -0.0567
     26 C21        -8.2580   -4.5941    2.8079 C.ar      1 <0>        -0.2120
     27 C22        -8.8794   -4.3161    4.0116 C.ar      1 <0>        -0.1033
     28 C23       -10.0667   -3.6031    4.0299 C.ar      1 <0>         0.0381
     29 C24       -10.6322   -3.1674    2.8336 C.ar      1 <0>         0.2620
     30 C25       -10.0004   -3.4455    1.6303 C.ar      1 <0>        -0.2280
     31 N2        -11.8321   -2.4468    2.8461 N.2       1 <0>        -1.0825
     32 S1        -12.5449   -2.0008    1.4194 S.o2      1 <0>         2.5260
     33 O3        -11.6030   -1.1373    0.7979 O.2       1 <0>        -1.0344
     34 O4        -12.9216   -3.2250    0.8040 O.2       1 <0>        -1.0299
     35 C26       -14.0213   -1.0669    1.9080 C.3       1 <0>        -0.6366
     36 O5        -10.6792   -3.3293    5.2131 O.3       1 <0>        -0.4844
     37 O6         -7.8853   -2.1322   -0.2553 O.3       1 <0>        -0.5401
     38 H3          0.3318    2.5202   -3.2858 H         1 <0>         0.1084
     39 H4         -1.3340    2.2401   -3.8470 H         1 <0>         0.0601
     40 H5         -0.9387    2.0820   -2.1187 H         1 <0>         0.0607
     41 H6         -2.7377    1.1815   -2.7160 H         1 <0>         0.1466
     42 H7         -4.5918   -0.4133   -2.4391 H         1 <0>         0.1272
     43 H8         -1.9571   -3.6503   -3.3159 H         1 <0>         0.1422
     44 H9          1.3461   -3.7920   -4.0952 H         1 <0>         0.1074
     45 H10         0.0495   -4.0683   -2.9074 H         1 <0>         0.0571
     46 H11        -0.3457   -3.9101   -4.6358 H         1 <0>         0.0582
     47 H12        -6.2602   -3.7336   -3.7975 H         1 <0>         0.0989
     48 H13        -5.6824   -2.1007   -4.2074 H         1 <0>         0.0986
     49 H14        -3.7624   -1.7951   -5.6769 H         1 <0>         0.1210
     50 H15        -2.4436   -2.7282   -7.5351 H         1 <0>         0.1247
     51 H16        -2.5092   -5.1455   -7.9992 H         1 <0>         0.1260
     52 H17        -3.8932   -6.6298   -6.6047 H         1 <0>         0.1271
     53 H18        -5.2055   -5.6978   -4.7412 H         1 <0>         0.1241
     54 H19        -4.7735   -2.5757   -0.7331 H         1 <0>         0.4314
     55 H20        -7.0584   -3.7655   -2.1386 H         1 <0>         0.1360
     56 H21        -5.8925   -4.6768   -1.1494 H         1 <0>         0.1418
     57 H22        -8.8835   -4.5514   -0.4770 H         1 <0>         0.0792
     58 H23        -7.5914   -5.4083    0.3973 H         1 <0>         0.0838
     59 H24        -7.3325   -5.1505    2.7956 H         1 <0>         0.1014
     60 H25        -8.4390   -4.6553    4.9375 H         1 <0>         0.1112
     61 H26       -10.4338   -3.1053    0.7014 H         1 <0>         0.1043
     62 H27       -13.7241   -0.2003    2.4985 H         1 <0>         0.1163
     63 H28       -14.5524   -0.7341    1.0162 H         1 <0>         0.1028
     64 H29       -14.6746   -1.7052    2.5029 H         1 <0>         0.1177
     65 H30       -10.4594   -2.4612    5.5782 H         1 <0>         0.3675
     66 H31        -8.5224   -2.1862   -0.9807 H         1 <0>         0.3866
     67 H32        -5.8054   -1.8085   -1.7634 H         1 <0>         0.4292
@<TRIPOS>BOND
     1    1    2 1
     2    1   38 1
     3    1   39 1
     4    1   40 1
     5    2    3 1
     6    3    8 ar
     7    3    4 ar
     8    4    5 ar
     9    4   41 1
    10    5    6 ar
    11    5   42 1
    12    6    7 ar
    13    6   11 1
    14    7    8 ar
    15    7   43 1
    16    8    9 1
    17    9   10 1
    18   10   44 1
    19   10   45 1
    20   10   46 1
    21   11   12 1
    22   11   13 1
    23   11   20 1
    24   13   14 1
    25   13   47 1
    26   13   48 1
    27   14   19 ar
    28   14   15 ar
    29   15   16 ar
    30   15   49 1
    31   16   17 ar
    32   16   50 1
    33   17   18 ar
    34   17   51 1
    35   18   19 ar
    36   18   52 1
    37   19   53 1
    38   20   21 1
    39   20   54 1
    40   20   67 1
    41   21   22 1
    42   21   55 1
    43   21   56 1
    44   22   23 1
    45   22   24 1
    46   22   37 1
    47   24   25 1
    48   24   57 1
    49   24   58 1
    50   25   30 ar
    51   25   26 ar
    52   26   27 ar
    53   26   59 1
    54   27   28 ar
    55   27   60 1
    56   28   29 ar
    57   28   36 1
    58   29   30 ar
    59   29   31 1
    60   30   61 1
    61   31   32 1
    62   32   33 2
    63   32   34 2
    64   32   35 1
    65   35   62 1
    66   35   63 1
    67   35   64 1
    68   36   65 1
    69   37   66 1
@<TRIPOS>MOLECULE
CHEMBL398557
   68    70     0     0     0
SMALL
USER_CHARGES

@<TRIPOS>ATOM
      1 C1         -0.2901   -2.4304   -1.6334 C.3       1 <0>         0.0210
      2 O1         -0.5285   -3.8345   -1.5155 O.3       1 <0>        -0.2971
      3 C2         -1.8057   -4.2244   -1.2582 C.ar      1 <0>         0.1310
      4 C3         -2.8081   -3.2766   -1.1280 C.ar      1 <0>        -0.1660
      5 C4         -4.1060   -3.6747   -0.8669 C.ar      1 <0>        -0.1145
      6 C5         -4.4071   -5.0175   -0.7347 C.ar      1 <0>        -0.1416
      7 C6         -3.4117   -5.9681   -0.8630 C.ar      1 <0>        -0.1369
      8 C7         -2.1098   -5.5763   -1.1309 C.ar      1 <0>         0.1152
      9 O2         -1.1305   -6.5105   -1.2634 O.3       1 <0>        -0.2964
     10 C8         -1.5158   -7.8791   -1.1201 C.3       1 <0>         0.0230
     11 C9         -5.8235   -5.4459   -0.4496 C.3       1 <0>         0.0884
     12 H1         -5.8217   -6.4537   -0.0343 H         1 <0>         0.1448
     13 C10        -6.6321   -5.4308   -1.7484 C.3       1 <0>        -0.0919
     14 C11        -6.0973   -6.4831   -2.6852 C.ar      1 <0>        -0.1014
     15 C12        -5.1520   -6.1462   -3.6359 C.ar      1 <0>        -0.0954
     16 C13        -4.6614   -7.1114   -4.4952 C.ar      1 <0>        -0.1150
     17 C14        -5.1159   -8.4137   -4.4037 C.ar      1 <0>        -0.1045
     18 C15        -6.0605   -8.7509   -3.4525 C.ar      1 <0>        -0.1161
     19 C16        -6.5479   -7.7865   -2.5903 C.ar      1 <0>        -0.1131
     20 N1         -6.4303   -4.5196    0.5157 N.4       1 <0>        -0.5031
     21 C17        -7.7639   -5.0080    0.8912 C.3       1 <0>        -0.0526
     22 C18        -8.3368   -4.1244    2.0012 C.3       1 <0>         0.0886
     23 H2         -7.6361   -4.0890    2.8354 H         1 <0>         0.1253
     24 C19        -9.6693   -4.7051    2.4787 C.3       1 <0>        -0.1080
     25 C20       -10.1732   -3.9065    3.6532 C.ar      1 <0>        -0.0709
     26 C21        -9.8130   -4.2677    4.9382 C.ar      1 <0>        -0.1157
     27 C22       -10.2719   -3.5385    6.0198 C.ar      1 <0>        -0.1156
     28 C23       -11.0947   -2.4428    5.8178 C.ar      1 <0>         0.0926
     29 C24       -11.4582   -2.0780    4.5233 C.ar      1 <0>         0.1366
     30 C25       -10.9897   -2.8112    3.4427 C.ar      1 <0>        -0.1516
     31 N2        -12.2898   -0.9720    4.3132 N.pl3     1 <0>        -1.0488
     32 S1        -13.3362   -0.9548    3.0299 S.o2      1 <0>         2.6098
     33 O3        -14.0806    0.2456    3.1851 O.2       1 <0>        -0.9417
     34 O4        -12.5136   -1.1546    1.8885 O.2       1 <0>        -0.9520
     35 C26       -14.4108   -2.3938    3.2852 C.3       1 <0>        -0.6677
     36 O5        -11.5472   -1.7249    6.8807 O.3       1 <0>        -0.4896
     37 O6         -8.5457   -2.8032    1.4983 O.3       1 <0>        -0.5467
     38 H3          0.7664   -2.2573   -1.8384 H         1 <0>         0.1105
     39 H4         -0.8894   -2.0274   -2.4498 H         1 <0>         0.0608
     40 H5         -0.5653   -1.9357   -0.7020 H         1 <0>         0.0605
     41 H6         -2.5754   -2.2269   -1.2301 H         1 <0>         0.1469
     42 H7         -4.8864   -2.9350   -0.7656 H         1 <0>         0.1244
     43 H8         -3.6495   -7.0165   -0.7589 H         1 <0>         0.1424
     44 H9         -1.9377   -8.0358   -0.1273 H         1 <0>         0.0569
     45 H10        -2.2617   -8.1275   -1.8751 H         1 <0>         0.0586
     46 H11        -0.6420   -8.5179   -1.2485 H         1 <0>         0.1095
     47 H12        -7.6789   -5.6394   -1.5271 H         1 <0>         0.0963
     48 H13        -6.5483   -4.4504   -2.2173 H         1 <0>         0.0981
     49 H14        -4.7969   -5.1287   -3.7074 H         1 <0>         0.1211
     50 H15        -3.9234   -6.8480   -5.2384 H         1 <0>         0.1267
     51 H16        -4.7331   -9.1677   -5.0756 H         1 <0>         0.1279
     52 H17        -6.4158   -9.7683   -3.3812 H         1 <0>         0.1279
     53 H18        -7.2832   -8.0507   -1.8447 H         1 <0>         0.1220
     54 H19        -5.8490   -4.4628    1.3385 H         1 <0>         0.4316
     55 H20        -8.4217   -4.9725    0.0227 H         1 <0>         0.1397
     56 H21        -7.6877   -6.0353    1.2475 H         1 <0>         0.1446
     57 H22       -10.3971   -4.6584    1.6686 H         1 <0>         0.0930
     58 H23        -9.5265   -5.7429    2.7795 H         1 <0>         0.0977
     59 H24        -9.1718   -5.1220    5.0977 H         1 <0>         0.1302
     60 H25        -9.9890   -3.8236    7.0223 H         1 <0>         0.1389
     61 H26       -11.2659   -2.5285    2.4377 H         1 <0>         0.1647
     62 H27       -12.2532   -0.2156    4.9193 H         1 <0>         0.4304
     63 H28       -14.9358   -2.2912    4.2349 H         1 <0>         0.1357
     64 H29       -15.1361   -2.4541    2.4738 H         1 <0>         0.1380
     65 H30       -13.8062   -3.3006    3.3003 H         1 <0>         0.1286
     66 H31       -10.9683   -0.9938    7.1367 H         1 <0>         0.3941
     67 H32        -9.1599   -2.7588    0.7527 H         1 <0>         0.3909
     68 H33        -6.5124   -3.6048    0.0981 H         1 <0>         0.4294
@<TRIPOS>BOND
     1    1    2 1
     2    1   38 1
     3    1   39 1
     4    1   40 1
     5    2    3 1
     6    3    8 ar
     7    3    4 ar
     8    4    5 ar
     9    4   41 1
    10    5    6 ar
    11    5   42 1
    12    6    7 ar
    13    6   11 1
    14    7    8 ar
    15    7   43 1
    16    8    9 1
    17    9   10 1
    18   10   44 1
    19   10   45 1
    20   10   46 1
    21   11   12 1
    22   11   13 1
    23   11   20 1
    24   13   14 1
    25   13   47 1
    26   13   48 1
    27   14   19 ar
    28   14   15 ar
    29   15   16 ar
    30   15   49 1
    31   16   17 ar
    32   16   50 1
    33   17   18 ar
    34   17   51 1
    35   18   19 ar
    36   18   52 1
    37   19   53 1
    38   20   21 1
    39   20   54 1
    40   20   68 1
    41   21   22 1
    42   21   55 1
    43   21   56 1
    44   22   23 1
    45   22   24 1
    46   22   37 1
    47   24   25 1
    48   24   57 1
    49   24   58 1
    50   25   30 ar
    51   25   26 ar
    52   26   27 ar
    53   26   59 1
    54   27   28 ar
    55   27   60 1
    56   28   29 ar
    57   28   36 1
    58   29   30 ar
    59   29   31 1
    60   30   61 1
    61   31   32 1
    62   31   62 1
    63   32   33 2
    64   32   34 2
    65   32   35 1
    66   35   63 1
    67   35   64 1
    68   35   65 1
    69   36   66 1
    70   37   67 1
@<TRIPOS>MOLECULE
CHEMBL55541
   61    65     0     0     0
SMALL
USER_CHARGES

@<TRIPOS>ATOM
      1 C1          4.5840   -0.9403   -4.0732 C.ar      1 <0>        -0.1263
      2 C2          3.4212   -0.2991   -3.6870 C.ar      1 <0>        -0.1027
      3 C3          3.0973   -0.2004   -2.3481 C.ar      1 <0>        -0.1284
      4 C4          3.9410   -0.7461   -1.3889 C.ar      1 <0>         0.1415
      5 C5          5.1082   -1.3896   -1.7804 C.ar      1 <0>        -0.1524
      6 C6          5.4261   -1.4847   -3.1209 C.ar      1 <0>        -0.0968
      7 N1          3.6167   -0.6477   -0.0339 N.pl3     1 <0>        -1.0571
      8 S1          3.7405   -1.9770    0.9458 S.o2      1 <0>         2.6957
      9 O1          5.0498   -2.4973    0.7608 O.2       1 <0>        -0.9472
     10 O2          3.2482   -1.5889    2.2210 O.2       1 <0>        -0.9490
     11 C7          2.6241   -3.1893    0.3225 C.ar      1 <0>        -0.7054
     12 C8          1.2920   -3.1608    0.6934 C.ar      1 <0>         0.0271
     13 C9          0.4159   -4.1073    0.2073 C.ar      1 <0>        -0.1767
     14 C10         0.8662   -5.1025   -0.6633 C.ar      1 <0>         0.2214
     15 C11         2.2031   -5.1221   -1.0287 C.ar      1 <0>        -0.1567
     16 C12         3.0763   -4.1679   -0.5428 C.ar      1 <0>         0.0408
     17 C13         2.4280   -6.2859   -1.9677 C.3       1 <0>        -0.0860
     18 C14         1.0457   -6.9452   -2.1037 C.3       1 <0>         0.1194
     19 N2          0.1531   -6.1428   -1.2630 N.pl3     1 <0>        -0.4991
     20 C15        -1.2017   -6.3819   -1.0880 C.2       1 <0>         0.2972
     21 N3         -1.9377   -7.3391   -1.6119 N.2       1 <0>        -0.5580
     22 C16        -3.2278   -7.4317   -1.3433 C.2       1 <0>         0.1055
     23 C17        -3.7518   -6.5012   -0.5094 C.2       1 <0>        -0.2603
     24 S2         -2.3025   -5.5230   -0.1484 S.3       1 <0>         0.1100
     25 C18        -4.0791   -8.5235   -1.9385 C.3       1 <0>        -0.0472
     26 C19        -4.7625   -8.0042   -3.2050 C.3       1 <0>        -0.1106
     27 C20        -5.6268   -9.1127   -3.8093 C.3       1 <0>        -0.1112
     28 C21        -6.3102   -8.5934   -5.0758 C.3       1 <0>        -0.0928
     29 C22        -7.3496   -7.5136   -4.7106 C.3       1 <0>        -0.1198
     30 C23        -8.5169   -7.7605   -5.6983 C.3       1 <0>        -0.1276
     31 C24        -8.5651   -9.3059   -5.7911 C.3       1 <0>        -0.1257
     32 C25        -7.0830   -9.7330   -5.7628 C.3       1 <0>        -0.1226
     33 H1          4.8327   -1.0201   -5.1211 H         1 <0>         0.1255
     34 H2          2.7659    0.1253   -4.4332 H         1 <0>         0.1270
     35 H3          2.1893    0.3009   -2.0471 H         1 <0>         0.1279
     36 H4          5.7665   -1.8147   -1.0372 H         1 <0>         0.1557
     37 H5          6.3334   -1.9848   -3.4260 H         1 <0>         0.1305
     38 H6          3.3189    0.1994    0.3332 H         1 <0>         0.4277
     39 H7          0.9371   -2.3944    1.3665 H         1 <0>         0.1485
     40 H8         -0.6230   -4.0796    0.5011 H         1 <0>         0.1340
     41 H9          4.1154   -4.1891   -0.8366 H         1 <0>         0.1484
     42 H10         2.7768   -5.9304   -2.9372 H         1 <0>         0.1002
     43 H11         3.1434   -6.9877   -1.5390 H         1 <0>         0.1007
     44 H12         0.7140   -6.9172   -3.1417 H         1 <0>         0.0893
     45 H13         1.0803   -7.9737   -1.7446 H         1 <0>         0.0896
     46 H14        -4.7662   -6.3854   -0.1570 H         1 <0>         0.1969
     47 H15        -3.4508   -9.3783   -2.1891 H         1 <0>         0.0802
     48 H16        -4.8362   -8.8285   -1.2161 H         1 <0>         0.0821
     49 H17        -5.3908   -7.1495   -2.9545 H         1 <0>         0.0650
     50 H18        -4.0054   -7.6992   -3.9274 H         1 <0>         0.0625
     51 H19        -4.9985   -9.9675   -4.0599 H         1 <0>         0.0629
     52 H20        -6.3839   -9.4177   -3.0869 H         1 <0>         0.0646
     53 H21        -5.5670   -8.1815   -5.7587 H         1 <0>         0.0695
     54 H22        -7.6868   -7.6412   -3.6819 H         1 <0>         0.0668
     55 H23        -6.9317   -6.5174   -4.8553 H         1 <0>         0.0621
     56 H24        -9.4516   -7.3683   -5.2975 H         1 <0>         0.0646
     57 H25        -8.2985   -7.3217   -6.6719 H         1 <0>         0.0651
     58 H26        -9.0986   -9.7229   -4.9369 H         1 <0>         0.0643
     59 H27        -9.0342   -9.6176   -6.7243 H         1 <0>         0.0631
     60 H28        -6.7155   -9.8736   -6.7793 H         1 <0>         0.0617
     61 H29        -6.9711  -10.6560   -5.1939 H         1 <0>         0.0645
@<TRIPOS>BOND
     1    1    6 ar
     2    1    2 ar
     3    1   33 1
     4    2    3 ar
     5    2   34 1
     6    3    4 ar
     7    3   35 1
     8    4    5 ar
     9    4    7 1
    10    5    6 ar
    11    5   36 1
    12    6   37 1
    13    7    8 1
    14    7   38 1
    15    8    9 2
    16    8   10 2
    17    8   11 1
    18   11   16 ar
    19   11   12 ar
    20   12   13 ar
    21   12   39 1
    22   13   14 ar
    23   13   40 1
    24   14   19 1
    25   14   15 ar
    26   15   16 ar
    27   15   17 1
    28   16   41 1
    29   17   18 1
    30   17   42 1
    31   17   43 1
    32   18   19 1
    33   18   44 1
    34   18   45 1
    35   19   20 1
    36   20   24 1
    37   20   21 2
    38   21   22 1
    39   22   23 2
    40   22   25 1
    41   23   24 1
    42   23   46 1
    43   25   26 1
    44   25   47 1
    45   25   48 1
    46   26   27 1
    47   26   49 1
    48   26   50 1
    49   27   28 1
    50   27   51 1
    51   27   52 1
    52   28   32 1
    53   28   29 1
    54   28   53 1
    55   29   30 1
    56   29   54 1
    57   29   55 1
    58   30   31 1
    59   30   56 1
    60   30   57 1
    61   31   32 1
    62   31   58 1
    63   31   59 1
    64   32   60 1
    65   32   61 1
@<TRIPOS>MOLECULE
CHEMBL180672
   55    57     0     0     0
SMALL
USER_CHARGES

@<TRIPOS>ATOM
      1 C1         -0.0187    1.5258    0.0104 C.3       1 <0>        -0.1815
      2 C2          0.0021   -0.0041    0.0020 C.3       1 <0>         0.0598
      3 C3          0.7421   -0.5109    1.2415 C.3       1 <0>        -0.1809
      4 C4         -1.4333   -0.5336    0.0129 C.3       1 <0>        -0.0916
      5 C5         -2.1387   -0.0476    1.2528 C.ar      1 <0>        -0.0975
      6 C6         -2.0859   -0.8123    2.4168 C.ar      1 <0>        -0.1204
      7 C7         -2.7122   -0.4024    3.5535 C.ar      1 <0>        -0.0902
      8 C8         -3.4232    0.8098    3.5571 C.ar      1 <0>        -0.0469
      9 C9         -4.0821    1.2661    4.7116 C.ar      1 <0>        -0.1081
     10 C10        -4.7607    2.4453    4.6779 C.ar      1 <0>        -0.1044
     11 C11        -4.8132    3.2101    3.5139 C.ar      1 <0>        -0.1050
     12 C12        -4.1873    2.7999    2.3772 C.ar      1 <0>        -0.1105
     13 C13        -3.4766    1.5875    2.3735 C.ar      1 <0>        -0.0531
     14 C14        -2.8130    1.1340    1.2206 C.ar      1 <0>        -0.0885
     15 N1          0.6897   -0.4778   -1.2066 N.4       1 <0>        -0.4982
     16 C15         2.0678    0.0307   -1.2170 C.3       1 <0>        -0.0500
     17 C16         2.7840   -0.4628   -2.4758 C.3       1 <0>         0.0864
     18 H1          2.7213   -1.5498   -2.5270 H         1 <0>         0.1354
     19 C17         4.2531   -0.0383   -2.4263 C.3       1 <0>         0.0263
     20 O1          4.9483   -0.5972   -3.5427 O.3       1 <0>        -0.2919
     21 C18         6.2715   -0.3151   -3.6486 C.ar      1 <0>         0.1790
     22 C19         6.8925    0.4779   -2.6962 C.ar      1 <0>        -0.2072
     23 C20         8.2395    0.7644   -2.8040 C.ar      1 <0>        -0.0338
     24 C21         8.9802    0.2636   -3.8612 C.ar      1 <0>        -0.1374
     25 C22         8.3791   -0.5272   -4.8190 C.ar      1 <0>         0.0406
     26 C23         7.0174   -0.8293   -4.7182 C.ar      1 <0>        -0.0447
     27 C24         6.3876   -1.6542   -5.7049 C.1       1 <0>         0.2479
     28 N2          5.8880   -2.3086   -6.4877 N.1       1 <0>        -0.3845
     29 Cl1         9.3129   -1.1516   -6.1425 Cl        1 <0>        -0.0266
     30 O2          2.1628    0.1050   -3.6307 O.3       1 <0>        -0.5409
     31 H2          1.0039    1.9031    0.0027 H         1 <0>         0.0811
     32 H3         -0.5459    1.8868   -0.8726 H         1 <0>         0.0835
     33 H4         -0.5289    1.8773    0.9072 H         1 <0>         0.1113
     34 H5          0.2319   -0.1594    2.1383 H         1 <0>         0.1120
     35 H6          0.7568   -1.6008    1.2356 H         1 <0>         0.0840
     36 H7          1.7647   -0.1336    1.2338 H         1 <0>         0.0811
     37 H8         -1.9605   -0.1726   -0.8702 H         1 <0>         0.0970
     38 H9         -1.4185   -1.6235    0.0069 H         1 <0>         0.0980
     39 H10        -1.5401   -1.7442    2.4168 H         1 <0>         0.1244
     40 H11        -2.6633   -1.0057    4.4479 H         1 <0>         0.1328
     41 H12        -4.0503    0.6838    5.6206 H         1 <0>         0.1322
     42 H13        -5.2665    2.7935    5.5664 H         1 <0>         0.1300
     43 H14        -5.3591    4.1420    3.5139 H         1 <0>         0.1294
     44 H15        -4.2369    3.4027    1.4825 H         1 <0>         0.1294
     45 H16        -2.8414    1.7183    0.3127 H         1 <0>         0.1281
     46 H17         0.7033   -1.4867   -1.2121 H         1 <0>         0.4291
     47 H18         2.0530    1.1205   -1.2110 H         1 <0>         0.1436
     48 H19         2.5950   -0.3304   -0.3340 H         1 <0>         0.1493
     49 H20         4.3186    1.0490   -2.4647 H         1 <0>         0.0848
     50 H21         4.7039   -0.3970   -1.5010 H         1 <0>         0.0892
     51 H22         6.3220    0.8728   -1.8686 H         1 <0>         0.1425
     52 H23         8.7178    1.3832   -2.0592 H         1 <0>         0.1495
     53 H24        10.0328    0.4933   -3.9367 H         1 <0>         0.1530
     54 H25         2.1814    1.0716   -3.6522 H         1 <0>         0.3905
     55 H26         0.2017   -0.1436   -2.0240 H         1 <0>         0.4325
@<TRIPOS>BOND
     1    1    2 1
     2    1   31 1
     3    1   32 1
     4    1   33 1
     5    2    3 1
     6    2    4 1
     7    2   15 1
     8    3   34 1
     9    3   35 1
    10    3   36 1
    11    4    5 1
    12    4   37 1
    13    4   38 1
    14    5   14 ar
    15    5    6 ar
    16    6    7 ar
    17    6   39 1
    18    7    8 ar
    19    7   40 1
    20    8   13 ar
    21    8    9 ar
    22    9   10 ar
    23    9   41 1
    24   10   11 ar
    25   10   42 1
    26   11   12 ar
    27   11   43 1
    28   12   13 ar
    29   12   44 1
    30   13   14 ar
    31   14   45 1
    32   15   16 1
    33   15   46 1
    34   15   55 1
    35   16   17 1
    36   16   47 1
    37   16   48 1
    38   17   18 1
    39   17   19 1
    40   17   30 1
    41   19   20 1
    42   19   49 1
    43   19   50 1
    44   20   21 1
    45   21   26 ar
    46   21   22 ar
    47   22   23 ar
    48   22   51 1
    49   23   24 ar
    50   23   52 1
    51   24   25 ar
    52   24   53 1
    53   25   26 ar
    54   25   29 1
    55   26   27 1
    56   27   28 3
    57   30   54 1
@<TRIPOS>MOLECULE
CHEMBL199824
   61    64     0     0     0
SMALL
USER_CHARGES

@<TRIPOS>ATOM
      1 C1         -0.0178    1.4608    0.0101 C.3       1 <0>         0.0742
      2 N1          0.0021   -0.0041    0.0020 N.am      1 <0>        -0.5564
      3 C2          0.0057   -0.6719   -1.1702 C.2       1 <0>         0.5085
      4 O1         -0.0075   -0.0650   -2.2251 O.2       1 <0>        -0.4673
      5 C3          0.0262   -2.1374   -1.1574 C.2       1 <0>         0.0628
      6 N2          0.0404   -2.7607   -0.0121 N.2       1 <0>        -0.1775
      7 N3          0.0360   -2.0278    1.1807 N.am      1 <0>        -0.4524
      8 C4          0.0223   -0.6831    1.1643 C.2       1 <0>         0.6787
      9 O2          0.0240   -0.0714    2.2152 O.2       1 <0>        -0.5324
     10 C5          0.0515   -2.7350    2.4636 C.3       1 <0>         0.1442
     11 C6         -1.3854   -3.0007    2.9169 C.3       1 <0>        -0.1364
     12 C7         -1.3692   -3.7393    4.2568 C.3       1 <0>        -0.1441
     13 C8         -2.8061   -4.0050    4.7101 C.3       1 <0>        -0.0091
     14 N4         -2.7905   -4.7141    5.9965 N.4       1 <0>        -0.3795
     15 C9         -2.1781   -6.0366    5.8170 C.3       1 <0>        -0.0321
     16 C10        -2.0569   -6.7311    7.1775 C.3       1 <0>         0.1205
     17 N5         -3.3860   -6.7578    7.8075 N.pl3     1 <0>        -0.6702
     18 C11        -4.1433   -5.4989    7.8819 C.3       1 <0>         0.1201
     19 C12        -4.1661   -4.8626    6.4883 C.3       1 <0>        -0.0265
     20 C13        -3.9130   -7.9428    8.3190 C.ar      1 <0>         0.1376
     21 C14        -3.6849   -8.2957    9.6317 C.ar      1 <0>        -0.0882
     22 C15        -4.2070   -9.4762   10.1522 C.ar      1 <0>        -0.1271
     23 C16        -4.9554  -10.3134    9.3823 C.ar      1 <0>        -0.0763
     24 C17        -5.2115   -9.9906    8.0386 C.ar      1 <0>        -0.0815
     25 C18        -4.6900   -8.7890    7.4988 C.ar      1 <0>        -0.0107
     26 C19        -4.9499   -8.4644    6.1586 C.ar      1 <0>        -0.1680
     27 C20        -5.7056   -9.3071    5.3937 C.ar      1 <0>         0.1421
     28 C21        -6.2244  -10.4896    5.9292 C.ar      1 <0>        -0.1930
     29 C22        -5.9809  -10.8375    7.2214 C.ar      1 <0>        -0.0515
     30 O3         -5.9567   -8.9915    4.0957 O.3       1 <0>        -0.3217
     31 C23        -6.7529   -9.9118    3.3466 C.3       1 <0>         0.0236
     32 H1         -6.2588  -10.8831    3.3216 H         1 <0>         0.0604
     33 H2         -7.7306  -10.0136    3.8177 H         1 <0>         0.0602
     34 H3         -6.8766   -9.5408    2.3292 H         1 <0>         0.1051
     35 H4          1.0048    1.8381    0.0023 H         1 <0>         0.0809
     36 H5         -0.5450    1.8219   -0.8730 H         1 <0>         0.0985
     37 H6         -0.5280    1.8123    0.9069 H         1 <0>         0.0965
     38 H7          0.0291   -2.6932   -2.0834 H         1 <0>         0.2276
     39 H8          0.5778   -3.6827    2.3497 H         1 <0>         0.1042
     40 H9          0.5606   -2.1240    3.2091 H         1 <0>         0.1065
     41 H10        -1.9116   -2.0530    3.0308 H         1 <0>         0.0810
     42 H11        -1.8944   -3.6117    2.1714 H         1 <0>         0.0833
     43 H12        -0.8429   -4.6870    4.1429 H         1 <0>         0.0926
     44 H13        -0.8601   -3.1283    5.0022 H         1 <0>         0.0933
     45 H14        -3.3323   -3.0573    4.8240 H         1 <0>         0.1321
     46 H15        -3.3151   -4.6160    3.9646 H         1 <0>         0.1302
     47 H16        -2.8010   -6.6388    5.1557 H         1 <0>         0.1310
     48 H17        -1.1871   -5.9216    5.3780 H         1 <0>         0.1390
     49 H18        -1.6972   -7.7505    7.0376 H         1 <0>         0.1159
     50 H19        -1.3626   -6.1783    7.8103 H         1 <0>         0.0804
     51 H20        -5.1631   -5.7037    8.2078 H         1 <0>         0.1161
     52 H21        -3.6598   -4.8217    8.5860 H         1 <0>         0.0805
     53 H22        -4.6399   -3.8825    6.5439 H         1 <0>         0.1374
     54 H23        -4.7289   -5.5003    5.8067 H         1 <0>         0.1306
     55 H24        -3.0940   -7.6490   10.2635 H         1 <0>         0.1267
     56 H25        -4.0150   -9.7326   11.1836 H         1 <0>         0.1307
     57 H26        -5.3519  -11.2253    9.8038 H         1 <0>         0.1331
     58 H27        -4.5550   -7.5532    5.7342 H         1 <0>         0.1200
     59 H28        -6.8195  -11.1404    5.3056 H         1 <0>         0.1352
     60 H29        -6.3877  -11.7544    7.6218 H         1 <0>         0.1381
     61 H30        -2.2511   -4.1843    6.6647 H         1 <0>         0.4222
@<TRIPOS>BOND
     1    1    2 1
     2    1   35 1
     3    1   36 1
     4    1   37 1
     5    2    8 am
     6    2    3 am
     7    3    4 2
     8    3    5 1
     9    5    6 2
    10    5   38 1
    11    6    7 1
    12    7    8 am
    13    7   10 1
    14    8    9 2
    15   10   11 1
    16   10   39 1
    17   10   40 1
    18   11   12 1
    19   11   41 1
    20   11   42 1
    21   12   13 1
    22   12   43 1
    23   12   44 1
    24   13   14 1
    25   13   45 1
    26   13   46 1
    27   14   19 1
    28   14   15 1
    29   14   61 1
    30   15   16 1
    31   15   47 1
    32   15   48 1
    33   16   17 1
    34   16   49 1
    35   16   50 1
    36   17   18 1
    37   17   20 1
    38   18   19 1
    39   18   51 1
    40   18   52 1
    41   19   53 1
    42   19   54 1
    43   20   25 ar
    44   20   21 ar
    45   21   22 ar
    46   21   55 1
    47   22   23 ar
    48   22   56 1
    49   23   24 ar
    50   23   57 1
    51   24   29 ar
    52   24   25 ar
    53   25   26 ar
    54   26   27 ar
    55   26   58 1
    56   27   28 ar
    57   27   30 1
    58   28   29 ar
    59   28   59 1
    60   29   60 1
    61   30   31 1
    62   31   32 1
    63   31   33 1
    64   31   34 1
@<TRIPOS>MOLECULE
CHEMBL1203992
   57    59     0     0     0
SMALL
USER_CHARGES

@<TRIPOS>ATOM
      1 C1          0.2824    1.4964    0.4783 C.ar      1 <0>        -0.1475
      2 C2          1.4805    2.1851    0.4336 C.ar      1 <0>        -0.0765
      3 C3          2.6741    1.4932    0.3626 C.ar      1 <0>        -0.1446
      4 C4          2.6699    0.1061    0.3366 C.ar      1 <0>         0.1165
      5 C5          1.4665   -0.5826    0.3820 C.ar      1 <0>        -0.2095
      6 C6          0.2756    0.1140    0.4525 C.ar      1 <0>        -0.0800
      7 O1          3.8428   -0.5768    0.2663 O.3       1 <0>        -0.3028
      8 C7          3.7624   -2.0034    0.2433 C.3       1 <0>         0.0296
      9 C8          5.1722   -2.5924    0.1632 C.3       1 <0>         0.0858
     10 H1          5.6931   -2.1725   -0.6973 H         1 <0>         0.1359
     11 C9          5.0821   -4.1123    0.0130 C.3       1 <0>        -0.0417
     12 N1          6.4358   -4.6778   -0.0639 N.4       1 <0>        -0.5036
     13 C10         6.3493   -6.1372   -0.2082 C.3       1 <0>        -0.0079
     14 C11         7.7591   -6.7262   -0.2883 C.3       1 <0>        -0.0972
     15 C12         7.6704   -8.2233   -0.4362 C.ar      1 <0>        -0.1286
     16 C13         7.6421   -9.0272    0.6885 C.ar      1 <0>        -0.0823
     17 C14         7.5608  -10.3996    0.5562 C.ar      1 <0>        -0.1269
     18 C15         7.5071  -10.9719   -0.7079 C.ar      1 <0>         0.1824
     19 C16         7.5352  -10.1617   -1.8354 C.ar      1 <0>        -0.1421
     20 C17         7.6117   -8.7897   -1.6963 C.ar      1 <0>        -0.0823
     21 N2          7.4251  -12.3622   -0.8453 N.am      1 <0>        -0.6479
     22 C18         6.8814  -13.1057    0.1386 C.2       1 <0>         0.6491
     23 O2          6.3633  -12.5632    1.0946 O.2       1 <0>        -0.5323
     24 O3          6.9122  -14.4500    0.0622 O.3       1 <0>        -0.2962
     25 C19         6.2606  -15.1589    1.0217 C.ar      1 <0>         0.0931
     26 C20         6.9764  -15.9545    1.9044 C.ar      1 <0>        -0.1121
     27 C21         6.3118  -16.6739    2.8786 C.ar      1 <0>        -0.1026
     28 C22         4.9344  -16.6015    2.9744 C.ar      1 <0>        -0.1101
     29 C23         4.2187  -15.8096    2.0956 C.ar      1 <0>        -0.1031
     30 C24         4.8791  -15.0834    1.1235 C.ar      1 <0>        -0.1196
     31 O4          5.8902   -2.2734    1.3568 O.3       1 <0>        -0.5436
     32 H2         -0.6494    2.0391    0.5380 H         1 <0>         0.1297
     33 H3          1.4832    3.2649    0.4539 H         1 <0>         0.1353
     34 H4          3.6096    2.0316    0.3270 H         1 <0>         0.1332
     35 H5          1.4606   -1.6624    0.3615 H         1 <0>         0.1234
     36 H6         -0.6615   -0.4217    0.4878 H         1 <0>         0.1285
     37 H7          3.2730   -2.3544    1.1518 H         1 <0>         0.0764
     38 H8          3.1861   -2.3208   -0.6257 H         1 <0>         0.0813
     39 H9          4.5613   -4.5322    0.8735 H         1 <0>         0.1398
     40 H10         4.5345   -4.3556   -0.8975 H         1 <0>         0.1470
     41 H11         6.9179   -4.2891   -0.8605 H         1 <0>         0.4309
     42 H12         5.8284   -6.5571    0.6523 H         1 <0>         0.1341
     43 H13         5.8016   -6.3805   -1.1186 H         1 <0>         0.1346
     44 H14         8.2799   -6.3062   -1.1488 H         1 <0>         0.0970
     45 H15         8.3068   -6.4829    0.6222 H         1 <0>         0.0969
     46 H16         7.6839   -8.5815    1.6713 H         1 <0>         0.1299
     47 H17         7.5395  -11.0270    1.4350 H         1 <0>         0.1507
     48 H18         7.4939  -10.6038   -2.8199 H         1 <0>         0.1362
     49 H19         7.6299   -8.1589   -2.5727 H         1 <0>         0.1318
     50 H20         7.7597  -12.7907   -1.6486 H         1 <0>         0.4245
     51 H21         8.0523  -16.0117    1.8297 H         1 <0>         0.1342
     52 H22         6.8686  -17.2938    3.5658 H         1 <0>         0.1369
     53 H23         4.4167  -17.1647    3.7367 H         1 <0>         0.1331
     54 H24         3.1427  -15.7552    2.1720 H         1 <0>         0.1333
     55 H25         4.3200  -14.4613    0.4403 H         1 <0>         0.1262
     56 H26         5.4832   -2.6163    2.1642 H         1 <0>         0.3903
     57 H27         6.9427   -4.4526    0.7789 H         1 <0>         0.4336
@<TRIPOS>BOND
     1    1    6 ar
     2    1    2 ar
     3    1   32 1
     4    2    3 ar
     5    2   33 1
     6    3    4 ar
     7    3   34 1
     8    4    5 ar
     9    4    7 1
    10    5    6 ar
    11    5   35 1
    12    6   36 1
    13    7    8 1
    14    8    9 1
    15    8   37 1
    16    8   38 1
    17    9   10 1
    18    9   11 1
    19    9   31 1
    20   11   12 1
    21   11   39 1
    22   11   40 1
    23   12   13 1
    24   12   41 1
    25   12   57 1
    26   13   14 1
    27   13   42 1
    28   13   43 1
    29   14   15 1
    30   14   44 1
    31   14   45 1
    32   15   20 ar
    33   15   16 ar
    34   16   17 ar
    35   16   46 1
    36   17   18 ar
    37   17   47 1
    38   18   19 ar
    39   18   21 1
    40   19   20 ar
    41   19   48 1
    42   20   49 1
    43   21   22 am
    44   21   50 1
    45   22   23 2
    46   22   24 1
    47   24   25 1
    48   25   30 ar
    49   25   26 ar
    50   26   27 ar
    51   26   51 1
    52   27   28 ar
    53   27   52 1
    54   28   29 ar
    55   28   53 1
    56   29   30 ar
    57   29   54 1
    58   30   55 1
    59   31   56 1
@<TRIPOS>MOLECULE
CHEMBL51667
   53    54     0     0     0
SMALL
USER_CHARGES

@<TRIPOS>ATOM
      1 C1         -0.0187    1.5258    0.0104 C.3       1 <0>        -0.1543
      2 C2          0.0021   -0.0041    0.0020 C.3       1 <0>         0.0601
      3 O1          0.6709   -0.4649   -1.1737 O.3       1 <0>        -0.3386
      4 C3          0.7760   -1.7999   -1.3349 C.2       1 <0>         0.5499
      5 O2          0.3119   -2.5517   -0.4993 O.2       1 <0>        -0.4770
      6 C4          1.4498   -2.3449   -2.5179 C.2       1 <0>        -0.0321
      7 C5          1.6111   -3.6662   -2.7901 C.2       1 <0>        -0.0419
      8 C6          2.3085   -3.7511   -4.0206 C.ar      1 <0>        -0.1668
      9 C7          2.5382   -2.4275   -4.4387 C.ar      1 <0>         0.1185
     10 O3          2.0016   -1.6106   -3.5094 O.3       1 <0>        -0.1572
     11 C8          3.2121   -2.1950   -5.6308 C.ar      1 <0>        -0.1409
     12 C9          3.6507   -3.2552   -6.3961 C.ar      1 <0>        -0.0350
     13 C10         3.4278   -4.5621   -5.9910 C.ar      1 <0>        -0.2356
     14 C11         2.7601   -4.8211   -4.8086 C.ar      1 <0>         0.1887
     15 O4          2.5432   -6.1012   -4.4123 O.3       1 <0>        -0.2909
     16 C12         3.0324   -7.1366   -5.2670 C.3       1 <0>         0.0262
     17 C13         2.6967   -8.5003   -4.6598 C.3       1 <0>         0.0872
     18 C14         3.3274   -9.6058   -5.5088 C.3       1 <0>        -0.0515
     19 N1          3.0051  -10.9151   -4.9258 N.4       1 <0>        -0.4978
     20 C15         3.6107  -11.9766   -5.7409 C.3       1 <0>         0.0549
     21 C16         5.1292  -11.7921   -5.7721 C.3       1 <0>        -0.1797
     22 C17         3.2750  -13.3402   -5.1337 C.3       1 <0>        -0.1779
     23 C18         3.0587  -11.9030   -7.1660 C.3       1 <0>        -0.1792
     24 O5          1.2784   -8.6726   -4.6307 O.3       1 <0>        -0.5420
     25 C19         1.1392   -4.8208   -1.9444 C.3       1 <0>        -0.0964
     26 H1          1.0039    1.9031    0.0027 H         1 <0>         0.0690
     27 H2         -0.5459    1.8868   -0.8726 H         1 <0>         0.0690
     28 H3         -0.5289    1.8773    0.9072 H         1 <0>         0.0852
     29 H4          0.5293   -0.3651    0.8851 H         1 <0>         0.0735
     30 H5         -1.0205   -0.3814    0.0098 H         1 <0>         0.0736
     31 H6          3.3926   -1.1821   -5.9592 H         1 <0>         0.1450
     32 H7          4.1736   -3.0652   -7.3218 H         1 <0>         0.1467
     33 H8          3.7773   -5.3814   -6.6017 H         1 <0>         0.1355
     34 H9          2.5639   -7.0502   -6.2474 H         1 <0>         0.0809
     35 H10         4.1132   -7.0415   -5.3712 H         1 <0>         0.0857
     36 H11         3.0900   -8.5527   -3.6446 H         1 <0>         0.1360
     37 H12         2.9342   -9.5534   -6.5240 H         1 <0>         0.1419
     38 H13         4.4093   -9.4744   -5.5310 H         1 <0>         0.1486
     39 H14         3.3692  -10.9636   -3.9860 H         1 <0>         0.4292
     40 H15         5.5225  -11.8445   -4.7569 H         1 <0>         0.0839
     41 H16         5.5786  -12.5797   -6.3769 H         1 <0>         0.1075
     42 H17         5.3684  -10.8206   -6.2047 H         1 <0>         0.0812
     43 H18         2.1932  -13.4717   -5.1115 H         1 <0>         0.0835
     44 H19         3.7244  -14.1278   -5.7386 H         1 <0>         0.1079
     45 H20         3.6683  -13.3926   -4.1185 H         1 <0>         0.0835
     46 H21         3.2978  -10.9315   -7.5986 H         1 <0>         0.0806
     47 H22         3.5080  -12.6906   -7.7708 H         1 <0>         0.1075
     48 H23         1.9769  -12.0344   -7.1438 H         1 <0>         0.0836
     49 H24         0.8600   -8.6373   -5.5018 H         1 <0>         0.3899
     50 H25         0.1311   -5.1044   -2.2468 H         1 <0>         0.0821
     51 H26         1.8111   -5.6685   -2.0794 H         1 <0>         0.0758
     52 H27         1.1342   -4.5247   -0.8955 H         1 <0>         0.0907
     53 H28         2.0037  -11.0368   -4.9053 H         1 <0>         0.4319
@<TRIPOS>BOND
     1    1    2 1
     2    1   26 1
     3    1   27 1
     4    1   28 1
     5    2    3 1
     6    2   29 1
     7    2   30 1
     8    3    4 1
     9    4    5 2
    10    4    6 1
    11    6   10 1
    12    6    7 2
    13    7    8 1
    14    7   25 1
    15    8   14 ar
    16    8    9 ar
    17    9   10 1
    18    9   11 ar
    19   11   12 ar
    20   11   31 1
    21   12   13 ar
    22   12   32 1
    23   13   14 ar
    24   13   33 1
    25   14   15 1
    26   15   16 1
    27   16   17 1
    28   16   34 1
    29   16   35 1
    30   17   18 1
    31   17   24 1
    32   17   36 1
    33   18   19 1
    34   18   37 1
    35   18   38 1
    36   19   20 1
    37   19   39 1
    38   19   53 1
    39   20   21 1
    40   20   22 1
    41   20   23 1
    42   21   40 1
    43   21   41 1
    44   21   42 1
    45   22   43 1
    46   22   44 1
    47   22   45 1
    48   23   46 1
    49   23   47 1
    50   23   48 1
    51   24   49 1
    52   25   50 1
    53   25   51 1
    54   25   52 1
@<TRIPOS>MOLECULE
CHEMBL51667
   53    54     0     0     0
SMALL
USER_CHARGES

@<TRIPOS>ATOM
      1 C1         -0.0187    1.5258    0.0104 C.3       1 <0>        -0.1543
      2 C2          0.0021   -0.0041    0.0020 C.3       1 <0>         0.0601
      3 O1          0.6709   -0.4649   -1.1737 O.3       1 <0>        -0.3386
      4 C3          0.7760   -1.7999   -1.3349 C.2       1 <0>         0.5499
      5 O2          0.3119   -2.5517   -0.4993 O.2       1 <0>        -0.4770
      6 C4          1.4498   -2.3449   -2.5179 C.2       1 <0>        -0.0321
      7 C5          1.6111   -3.6662   -2.7901 C.2       1 <0>        -0.0418
      8 C6          2.3085   -3.7511   -4.0206 C.ar      1 <0>        -0.1667
      9 C7          2.5382   -2.4275   -4.4387 C.ar      1 <0>         0.1185
     10 O3          2.0016   -1.6106   -3.5094 O.3       1 <0>        -0.1573
     11 C8          3.2121   -2.1950   -5.6308 C.ar      1 <0>        -0.1408
     12 C9          3.6507   -3.2552   -6.3961 C.ar      1 <0>        -0.0350
     13 C10         3.4278   -4.5621   -5.9910 C.ar      1 <0>        -0.2356
     14 C11         2.7601   -4.8211   -4.8086 C.ar      1 <0>         0.1886
     15 O4          2.5432   -6.1012   -4.4123 O.3       1 <0>        -0.2909
     16 C12         3.0324   -7.1366   -5.2670 C.3       1 <0>         0.0262
     17 C13         2.6967   -8.5003   -4.6598 C.3       1 <0>         0.0874
     18 C14         3.1086   -9.6071   -5.6326 C.3       1 <0>        -0.0512
     19 N1          2.6787  -10.9085   -5.1040 N.4       1 <0>        -0.4983
     20 C15         3.0741  -11.9712   -6.0380 C.3       1 <0>         0.0548
     21 C16         4.5952  -11.9650   -6.2031 C.3       1 <0>        -0.1792
     22 C17         2.6264  -13.3267   -5.4875 C.3       1 <0>        -0.1779
     23 C18         2.4127  -11.7286   -7.3962 C.3       1 <0>        -0.1796
     24 O5          3.4041   -8.6607   -3.4286 O.3       1 <0>        -0.5416
     25 C19         1.1392   -4.8208   -1.9444 C.3       1 <0>        -0.0981
     26 H1          1.0039    1.9031    0.0027 H         1 <0>         0.0690
     27 H2         -0.5459    1.8868   -0.8726 H         1 <0>         0.0689
     28 H3         -0.5289    1.8773    0.9072 H         1 <0>         0.0852
     29 H4          0.5293   -0.3651    0.8851 H         1 <0>         0.0736
     30 H5         -1.0205   -0.3814    0.0098 H         1 <0>         0.0735
     31 H6          3.3926   -1.1821   -5.9592 H         1 <0>         0.1450
     32 H7          4.1736   -3.0652   -7.3218 H         1 <0>         0.1467
     33 H8          3.7773   -5.3814   -6.6017 H         1 <0>         0.1355
     34 H9          2.5639   -7.0502   -6.2474 H         1 <0>         0.0854
     35 H10         4.1132   -7.0415   -5.3712 H         1 <0>         0.0811
     36 H11         1.6245   -8.5609   -4.4733 H         1 <0>         0.1352
     37 H12         2.6374   -9.4343   -6.6002 H         1 <0>         0.1481
     38 H13         4.1922   -9.6027   -5.7502 H         1 <0>         0.1424
     39 H14         3.1148  -11.0685   -4.2083 H         1 <0>         0.4324
     40 H15         5.0664  -12.1378   -5.2355 H         1 <0>         0.0837
     41 H16         4.8886  -12.7535   -6.8961 H         1 <0>         0.1074
     42 H17         4.9142  -10.9993   -6.5953 H         1 <0>         0.0806
     43 H18         1.5427  -13.3310   -5.3699 H         1 <0>         0.0835
     44 H19         2.9198  -14.1152   -6.1805 H         1 <0>         0.1079
     45 H20         3.0976  -13.4995   -4.5199 H         1 <0>         0.0836
     46 H21         2.7317  -10.7629   -7.7884 H         1 <0>         0.0811
     47 H22         2.7062  -12.5171   -8.0892 H         1 <0>         0.1075
     48 H23         1.3291  -11.7330   -7.2785 H         1 <0>         0.0838
     49 H24         4.3659   -8.6176   -3.5191 H         1 <0>         0.3904
     50 H25         0.1311   -5.1044   -2.2468 H         1 <0>         0.0804
     51 H26         1.8111   -5.6685   -2.0794 H         1 <0>         0.0788
     52 H27         1.1342   -4.5247   -0.8955 H         1 <0>         0.0910
     53 H28         1.6756  -10.9126   -4.9951 H         1 <0>         0.4289
@<TRIPOS>BOND
     1    1    2 1
     2    1   26 1
     3    1   27 1
     4    1   28 1
     5    2    3 1
     6    2   29 1
     7    2   30 1
     8    3    4 1
     9    4    5 2
    10    4    6 1
    11    6   10 1
    12    6    7 2
    13    7    8 1
    14    7   25 1
    15    8   14 ar
    16    8    9 ar
    17    9   10 1
    18    9   11 ar
    19   11   12 ar
    20   11   31 1
    21   12   13 ar
    22   12   32 1
    23   13   14 ar
    24   13   33 1
    25   14   15 1
    26   15   16 1
    27   16   17 1
    28   16   34 1
    29   16   35 1
    30   17   18 1
    31   17   24 1
    32   17   36 1
    33   18   19 1
    34   18   37 1
    35   18   38 1
    36   19   20 1
    37   19   39 1
    38   19   53 1
    39   20   21 1
    40   20   22 1
    41   20   23 1
    42   21   40 1
    43   21   41 1
    44   21   42 1
    45   22   43 1
    46   22   44 1
    47   22   45 1
    48   23   46 1
    49   23   47 1
    50   23   48 1
    51   24   49 1
    52   25   50 1
    53   25   51 1
    54   25   52 1
@<TRIPOS>MOLECULE
CHEMBL1203993
   58    60     0     0     0
SMALL
USER_CHARGES

@<TRIPOS>ATOM
      1 C1          1.5335    1.3911    3.4082 C.ar      1 <0>        -0.1061
      2 C2          2.3132    0.3414    3.8581 C.ar      1 <0>        -0.1102
      3 C3          3.1343   -0.3372    2.9790 C.ar      1 <0>        -0.0716
      4 C4          3.1759    0.0354    1.6417 C.ar      1 <0>         0.1098
      5 C5          2.3912    1.0898    1.1929 C.ar      1 <0>        -0.1184
      6 C6          1.5727    1.7646    2.0773 C.ar      1 <0>        -0.1130
      7 N1          4.0067   -0.6495    0.7488 N.pl3     1 <0>        -0.6170
      8 C7          4.1103   -1.9915    0.8189 C.2       1 <0>         0.5468
      9 S1          3.1166   -2.8714    1.9002 S.2       1 <0>        -0.5799
     10 N2          4.9962   -2.6407    0.0377 N.pl3     1 <0>        -0.6354
     11 C8          5.0216   -4.0392    0.0221 C.ar      1 <0>         0.1475
     12 C9          3.8325   -4.7569    0.0212 C.ar      1 <0>        -0.0692
     13 C10         3.8611   -6.1376    0.0058 C.ar      1 <0>        -0.0990
     14 C11         5.0719   -6.8055   -0.0082 C.ar      1 <0>        -0.1050
     15 C12         6.2576   -6.0939   -0.0072 C.ar      1 <0>        -0.1010
     16 C13         6.2359   -4.7130    0.0018 C.ar      1 <0>        -0.1205
     17 C14         5.0993   -8.3122   -0.0239 C.3       1 <0>        -0.1005
     18 C15         5.1001   -8.8071   -1.4716 C.3       1 <0>        -0.0067
     19 N3          5.1268  -10.2758   -1.4870 N.4       1 <0>        -0.5040
     20 C16         5.1277  -10.7510   -2.8770 C.3       1 <0>        -0.0414
     21 C17         5.1555  -12.2807   -2.8929 C.3       1 <0>         0.0853
     22 H1          4.2752  -12.6655   -2.3779 H         1 <0>         0.1362
     23 C18         5.1563  -12.7757   -4.3407 C.3       1 <0>         0.0298
     24 O1          5.0648  -14.2017   -4.3566 O.3       1 <0>        -0.3027
     25 C19         5.0534  -14.8056   -5.5740 C.ar      1 <0>         0.1165
     26 C20         5.1346  -14.0419   -6.7293 C.ar      1 <0>        -0.2095
     27 C21         5.1233  -14.6582   -7.9655 C.ar      1 <0>        -0.0802
     28 C22         5.0308  -16.0351   -8.0521 C.ar      1 <0>        -0.1475
     29 C23         4.9493  -16.7985   -6.9021 C.ar      1 <0>        -0.0764
     30 C24         4.9664  -16.1873   -5.6633 C.ar      1 <0>        -0.1445
     31 O2          6.3346  -12.7426   -2.2309 O.3       1 <0>        -0.5432
     32 H2          0.8892    1.9175    4.0968 H         1 <0>         0.1285
     33 H3          2.2804    0.0522    4.8981 H         1 <0>         0.1305
     34 H4          3.7435   -1.1565    3.3311 H         1 <0>         0.1414
     35 H5          2.4216    1.3822    0.1537 H         1 <0>         0.1248
     36 H6          0.9623    2.5847    1.7290 H         1 <0>         0.1307
     37 H7          4.5083   -0.1587    0.0792 H         1 <0>         0.4099
     38 H8          5.6161   -2.1382   -0.5137 H         1 <0>         0.4113
     39 H9          2.8866   -4.2358    0.0328 H         1 <0>         0.1493
     40 H10         2.9368   -6.6962    0.0051 H         1 <0>         0.1304
     41 H11         7.2015   -6.6185   -0.0182 H         1 <0>         0.1297
     42 H12         7.1622   -4.1577   -0.0023 H         1 <0>         0.1309
     43 H13         5.9987   -8.6645    0.4811 H         1 <0>         0.0973
     44 H14         4.2190   -8.6969    0.4911 H         1 <0>         0.0985
     45 H15         4.2007   -8.4548   -1.9766 H         1 <0>         0.1350
     46 H16         5.9803   -8.4223   -1.9866 H         1 <0>         0.1336
     47 H17         5.9594  -10.6020   -1.0195 H         1 <0>         0.4335
     48 H18         4.2282  -10.3987   -3.3819 H         1 <0>         0.1471
     49 H19         6.0079  -10.3662   -3.3920 H         1 <0>         0.1395
     50 H20         4.3036  -12.3509   -4.8704 H         1 <0>         0.0813
     51 H21         6.0794  -12.4654   -4.8302 H         1 <0>         0.0761
     52 H22         5.2062  -12.9663   -6.6622 H         1 <0>         0.1233
     53 H23         5.1865  -14.0641   -8.8652 H         1 <0>         0.1284
     54 H24         5.0218  -16.5150   -9.0195 H         1 <0>         0.1296
     55 H25         4.8767  -17.8737   -6.9724 H         1 <0>         0.1353
     56 H26         4.9072  -16.7843   -4.7653 H         1 <0>         0.1333
     57 H27         7.1581  -12.4380   -2.6361 H         1 <0>         0.3898
     58 H28         4.3120  -10.6320   -1.0102 H         1 <0>         0.4317
@<TRIPOS>BOND
     1    1    6 ar
     2    1    2 ar
     3    1   32 1
     4    2    3 ar
     5    2   33 1
     6    3    4 ar
     7    3   34 1
     8    4    5 ar
     9    4    7 1
    10    5    6 ar
    11    5   35 1
    12    6   36 1
    13    7    8 1
    14    7   37 1
    15    8    9 2
    16    8   10 1
    17   10   11 1
    18   10   38 1
    19   11   16 ar
    20   11   12 ar
    21   12   13 ar
    22   12   39 1
    23   13   14 ar
    24   13   40 1
    25   14   15 ar
    26   14   17 1
    27   15   16 ar
    28   15   41 1
    29   16   42 1
    30   17   18 1
    31   17   43 1
    32   17   44 1
    33   18   19 1
    34   18   45 1
    35   18   46 1
    36   19   20 1
    37   19   47 1
    38   19   58 1
    39   20   21 1
    40   20   48 1
    41   20   49 1
    42   21   22 1
    43   21   23 1
    44   21   31 1
    45   23   24 1
    46   23   50 1
    47   23   51 1
    48   24   25 1
    49   25   30 ar
    50   25   26 ar
    51   26   27 ar
    52   26   52 1
    53   27   28 ar
    54   27   53 1
    55   28   29 ar
    56   28   54 1
    57   29   30 ar
    58   29   55 1
    59   30   56 1
    60   31   57 1
@<TRIPOS>MOLECULE
CHEMBL36568
   64    66     0     0     0
SMALL
USER_CHARGES

@<TRIPOS>ATOM
      1 C1          0.8623    2.3450   -1.6112 C.3       1 <0>        -0.6345
      2 S1          1.3237    0.7820   -2.4079 S.o2      1 <0>         2.5254
      3 O1          0.5938    0.6141   -3.6155 O.2       1 <0>        -1.0367
      4 O2          2.7352    0.6194   -2.3860 O.2       1 <0>        -1.0274
      5 N1          0.7468   -0.3969   -1.3981 N.2       1 <0>        -1.0758
      6 C2          0.8428   -1.7435   -1.7677 C.ar      1 <0>         0.2693
      7 C3          1.5206   -2.1006   -2.9242 C.ar      1 <0>        -0.2339
      8 C4          1.6145   -3.4312   -3.2868 C.ar      1 <0>        -0.0971
      9 C5          1.0343   -4.4083   -2.4994 C.ar      1 <0>        -0.2013
     10 C6          0.3571   -4.0597   -1.3452 C.ar      1 <0>        -0.1036
     11 C7          0.2630   -2.7292   -0.9721 C.ar      1 <0>         0.0516
     12 O3         -0.3983   -2.3854    0.1657 O.3       1 <0>        -0.4809
     13 C8          2.3507   -3.8176   -4.5437 C.3       1 <0>         0.1389
     14 H1          3.0856   -3.0496   -4.7850 H         1 <0>         0.1243
     15 C9          1.3547   -3.9509   -5.6975 C.3       1 <0>        -0.0452
     16 N2          2.0724   -4.3276   -6.9227 N.4       1 <0>        -0.5031
     17 C10         1.1161   -4.4556   -8.0305 C.3       1 <0>         0.0260
     18 C11         0.1595   -5.6160   -7.7467 C.3       1 <0>        -0.1595
     19 C12        -0.8576   -5.7245   -8.8872 C.3       1 <0>         0.1238
     20 N3         -0.1313   -5.8386  -10.1593 N.pl3     1 <0>        -0.6317
     21 C13         0.8784   -4.8236  -10.4897 C.3       1 <0>         0.1240
     22 C14         1.8760   -4.7252   -9.3313 C.3       1 <0>        -0.1580
     23 C15        -0.3942   -6.8873  -11.0336 C.ar      1 <0>         0.2248
     24 C16        -1.2675   -7.9038  -10.6565 C.ar      1 <0>        -0.2051
     25 C17        -1.5297   -8.9430  -11.5195 C.ar      1 <0>        -0.0136
     26 C18        -0.9181   -8.9774  -12.7761 C.ar      1 <0>        -0.1711
     27 C19        -0.0416   -7.9552  -13.1518 C.ar      1 <0>        -0.0350
     28 C20         0.2121   -6.9157  -12.2865 C.ar      1 <0>        -0.2007
     29 C21        -1.1966  -10.0903  -13.7035 C.2       1 <0>         0.5448
     30 O4         -1.9589  -10.9789  -13.3753 O.2       1 <0>        -0.5612
     31 N4         -0.6062  -10.1220  -14.9147 N.am      1 <0>        -0.6941
     32 C22        -0.8828  -11.2272  -15.8357 C.3       1 <0>         0.0497
     33 C23        -0.1041  -11.0260  -17.1101 C.2       1 <0>         0.4905
     34 O5          0.6153  -10.0498  -17.2372 O.co2     1 <0>        -0.6938
     35 O6         -0.1934  -11.8393  -18.0140 O.co2     1 <0>        -0.6861
     36 O7          3.0154   -5.0663   -4.3415 O.3       1 <0>        -0.5530
     37 H2         -0.2219    2.3954   -1.5106 H         1 <0>         0.1176
     38 H3          1.3217    2.3992   -0.6242 H         1 <0>         0.1188
     39 H4          1.2099    3.1796   -2.2200 H         1 <0>         0.1046
     40 H5          1.9745   -1.3393   -3.5413 H         1 <0>         0.1077
     41 H6          1.1098   -5.4466   -2.7867 H         1 <0>         0.1044
     42 H7         -0.0950   -4.8255   -0.7324 H         1 <0>         0.1169
     43 H8         -1.3536   -2.2885    0.0513 H         1 <0>         0.3690
     44 H9          0.6198   -4.7189   -5.4562 H         1 <0>         0.1375
     45 H10         0.8477   -2.9984   -5.8517 H         1 <0>         0.1457
     46 H11         2.7527   -3.6167   -7.1461 H         1 <0>         0.4275
     47 H12         0.5468   -3.5312   -8.1274 H         1 <0>         0.1403
     48 H13         0.7254   -6.5447   -7.6743 H         1 <0>         0.0926
     49 H14        -0.3643   -5.4344   -6.8082 H         1 <0>         0.0994
     50 H15        -1.4783   -6.6084   -8.7403 H         1 <0>         0.1048
     51 H16        -1.4851   -4.8334   -8.9032 H         1 <0>         0.0750
     52 H17         1.4031   -5.1131  -11.4002 H         1 <0>         0.1052
     53 H18         0.3925   -3.8590  -10.6365 H         1 <0>         0.0746
     54 H19         2.5739   -3.9096   -9.5206 H         1 <0>         0.0983
     55 H20         2.4258   -5.6623   -9.2440 H         1 <0>         0.0925
     56 H21        -1.7395   -7.8768   -9.6854 H         1 <0>         0.1265
     57 H22        -2.2071   -9.7314  -11.2263 H         1 <0>         0.1365
     58 H23         0.4327   -7.9791  -14.1218 H         1 <0>         0.1344
     59 H24         0.8854   -6.1232  -12.5780 H         1 <0>         0.1275
     60 H25         0.0019   -9.4131  -15.1765 H         1 <0>         0.4059
     61 H26        -0.5859  -12.1685  -15.3732 H         1 <0>         0.0674
     62 H27        -1.9488  -11.2537  -16.0616 H         1 <0>         0.0676
     63 H28         2.4214   -5.7972   -4.1227 H         1 <0>         0.3839
     64 H29         2.5417   -5.2093   -6.7800 H         1 <0>         0.4271
@<TRIPOS>BOND
     1    1    2 1
     2    1   37 1
     3    1   38 1
     4    1   39 1
     5    2    3 2
     6    2    4 2
     7    2    5 1
     8    5    6 1
     9    6   11 ar
    10    6    7 ar
    11    7    8 ar
    12    7   40 1
    13    8    9 ar
    14    8   13 1
    15    9   10 ar
    16    9   41 1
    17   10   11 ar
    18   10   42 1
    19   11   12 1
    20   12   43 1
    21   13   14 1
    22   13   15 1
    23   13   36 1
    24   15   16 1
    25   15   44 1
    26   15   45 1
    27   16   17 1
    28   16   46 1
    29   16   64 1
    30   17   22 1
    31   17   18 1
    32   17   47 1
    33   18   19 1
    34   18   48 1
    35   18   49 1
    36   19   20 1
    37   19   50 1
    38   19   51 1
    39   20   21 1
    40   20   23 1
    41   21   22 1
    42   21   52 1
    43   21   53 1
    44   22   54 1
    45   22   55 1
    46   23   28 ar
    47   23   24 ar
    48   24   25 ar
    49   24   56 1
    50   25   26 ar
    51   25   57 1
    52   26   27 ar
    53   26   29 1
    54   27   28 ar
    55   27   58 1
    56   28   59 1
    57   29   30 2
    58   29   31 am
    59   31   32 1
    60   31   60 1
    61   32   33 1
    62   32   61 1
    63   32   62 1
    64   33   34 2
    65   33   35 1
    66   36   63 1
@<TRIPOS>MOLECULE
CHEMBL36568
   65    67     0     0     0
SMALL
USER_CHARGES

@<TRIPOS>ATOM
      1 C1          0.0603    1.6817    0.1732 C.3       1 <0>        -0.6693
      2 S1          0.0610   -0.1276    0.0417 S.o2      1 <0>         2.6059
      3 O1          0.9043   -0.6903    1.0374 O.2       1 <0>        -0.9498
      4 O2         -1.2649   -0.6057   -0.1394 O.2       1 <0>        -0.9366
      5 N1          0.8258   -0.4498   -1.3913 N.pl3     1 <0>        -1.0509
      6 C2          2.1463   -0.0304   -1.5895 C.ar      1 <0>         0.1367
      7 C3          3.0444   -0.0372   -0.5322 C.ar      1 <0>        -0.1477
      8 C4          4.3481    0.3770   -0.7306 C.ar      1 <0>        -0.1184
      9 C5          4.7603    0.7986   -1.9811 C.ar      1 <0>        -0.1032
     10 C6          3.8707    0.8081   -3.0397 C.ar      1 <0>        -0.1125
     11 C7          2.5640    0.3896   -2.8505 C.ar      1 <0>         0.1084
     12 O3          1.6893    0.3935   -3.8921 O.3       1 <0>        -0.4877
     13 C8          5.3224    0.3695    0.4191 C.3       1 <0>         0.1346
     14 H1          5.0045   -0.3641    1.1600 H         1 <0>         0.1373
     15 C9          5.3643    1.7576    1.0611 C.3       1 <0>        -0.0484
     16 N2          6.3140    1.7503    2.1818 N.4       1 <0>        -0.5037
     17 C10         6.3542    3.0831    2.7983 C.3       1 <0>         0.0268
     18 C11         6.9173    4.0922    1.7948 C.3       1 <0>        -0.1594
     19 C12         6.9255    5.4867    2.4290 C.3       1 <0>         0.1250
     20 N3          7.6611    5.4242    3.6993 N.pl3     1 <0>        -0.6333
     21 C13         7.2593    4.4262    4.7000 C.3       1 <0>         0.1235
     22 C14         7.2474    3.0436    4.0404 C.3       1 <0>        -0.1594
     23 C15         8.7178    6.2926    3.9495 C.ar      1 <0>         0.2181
     24 C16         9.0057    7.3141    3.0485 C.ar      1 <0>        -0.2027
     25 C17        10.0508    8.1752    3.2933 C.ar      1 <0>        -0.0147
     26 C18        10.8237    8.0234    4.4482 C.ar      1 <0>        -0.1640
     27 C19        10.5321    6.9967    5.3510 C.ar      1 <0>        -0.0355
     28 C20         9.4821    6.1424    5.1034 C.ar      1 <0>        -0.1983
     29 C21        11.9451    8.9445    4.7134 C.2       1 <0>         0.5421
     30 O4         12.1979    9.8369    3.9270 O.2       1 <0>        -0.5592
     31 N4         12.6894    8.7969    5.8273 N.am      1 <0>        -0.6921
     32 C22        13.8030    9.7117    6.0907 C.3       1 <0>         0.0489
     33 C23        14.4673    9.3335    7.3894 C.2       1 <0>         0.4903
     34 O5         14.0492    8.3876    8.0352 O.co2     1 <0>        -0.6946
     35 O6         15.4228    9.9735    7.7944 O.co2     1 <0>        -0.6834
     36 O7          6.6239    0.0276   -0.0617 O.3       1 <0>        -0.5439
     37 H2          1.0874    2.0463    0.1735 H         1 <0>         0.1256
     38 H3         -0.4762    2.1074   -0.6748 H         1 <0>         0.1354
     39 H4         -0.4309    1.9784    1.0999 H         1 <0>         0.1393
     40 H5          0.3587   -0.9293   -2.0933 H         1 <0>         0.4366
     41 H6          2.7249   -0.3657    0.4458 H         1 <0>         0.1706
     42 H7          5.7798    1.1217   -2.1315 H         1 <0>         0.1324
     43 H8          4.1959    1.1380   -4.0153 H         1 <0>         0.1448
     44 H9          1.2033    1.2232   -3.9945 H         1 <0>         0.3980
     45 H10         5.6822    2.4912    0.3202 H         1 <0>         0.1393
     46 H11         4.3715    2.0184    1.4279 H         1 <0>         0.1446
     47 H12         6.0197    1.0713    2.8677 H         1 <0>         0.4302
     48 H13         5.3458    3.3810    3.0854 H         1 <0>         0.1405
     49 H14         7.9349    3.8088    1.5260 H         1 <0>         0.0946
     50 H15         6.2939    4.1028    0.9008 H         1 <0>         0.0947
     51 H16         7.4160    6.1908    1.7570 H         1 <0>         0.1056
     52 H17         5.9011    5.8093    2.6155 H         1 <0>         0.0727
     53 H18         7.9701    4.4307    5.5264 H         1 <0>         0.1083
     54 H19         6.2622    4.6624    5.0716 H         1 <0>         0.0743
     55 H20         6.8589    2.3079    4.7446 H         1 <0>         0.0997
     56 H21         8.2619    2.7701    3.7504 H         1 <0>         0.0948
     57 H22         8.4084    7.4306    2.1562 H         1 <0>         0.1253
     58 H23        10.2739    8.9672    2.5937 H         1 <0>         0.1379
     59 H24        11.1276    6.8767    6.2440 H         1 <0>         0.1362
     60 H25         9.2533    5.3519    5.8029 H         1 <0>         0.1275
     61 H26        12.4877    8.0851    6.4546 H         1 <0>         0.4057
     62 H27        14.5276    9.6451    5.2791 H         1 <0>         0.0684
     63 H28        13.4265   10.7323    6.1588 H         1 <0>         0.0686
     64 H29         6.9709    0.6388   -0.7259 H         1 <0>         0.3882
     65 H30         7.2330    1.5089    1.8423 H         1 <0>         0.4312
@<TRIPOS>BOND
     1    1    2 1
     2    1   37 1
     3    1   38 1
     4    1   39 1
     5    2    3 2
     6    2    4 2
     7    2    5 1
     8    5    6 1
     9    5   40 1
    10    6   11 ar
    11    6    7 ar
    12    7    8 ar
    13    7   41 1
    14    8    9 ar
    15    8   13 1
    16    9   10 ar
    17    9   42 1
    18   10   11 ar
    19   10   43 1
    20   11   12 1
    21   12   44 1
    22   13   14 1
    23   13   15 1
    24   13   36 1
    25   15   16 1
    26   15   45 1
    27   15   46 1
    28   16   17 1
    29   16   47 1
    30   16   65 1
    31   17   22 1
    32   17   18 1
    33   17   48 1
    34   18   19 1
    35   18   49 1
    36   18   50 1
    37   19   20 1
    38   19   51 1
    39   19   52 1
    40   20   21 1
    41   20   23 1
    42   21   22 1
    43   21   53 1
    44   21   54 1
    45   22   55 1
    46   22   56 1
    47   23   28 ar
    48   23   24 ar
    49   24   25 ar
    50   24   57 1
    51   25   26 ar
    52   25   58 1
    53   26   27 ar
    54   26   29 1
    55   27   28 ar
    56   27   59 1
    57   28   60 1
    58   29   30 2
    59   29   31 am
    60   31   32 1
    61   31   61 1
    62   32   33 1
    63   32   62 1
    64   32   63 1
    65   33   34 2
    66   33   35 1
    67   36   64 1
@<TRIPOS>MOLECULE
CHEMBL168893
   60    63     0     0     0
SMALL
USER_CHARGES

@<TRIPOS>ATOM
      1 C1         -0.0187    1.5258    0.0104 C.3       1 <0>        -0.1813
      2 C2          0.0021   -0.0041    0.0020 C.3       1 <0>         0.0588
      3 C3          0.7421   -0.5109    1.2415 C.3       1 <0>        -0.1822
      4 C4         -1.4333   -0.5336    0.0129 C.3       1 <0>        -0.0874
      5 C5         -2.1387   -0.0476    1.2528 C.ar      1 <0>        -0.1247
      6 C6         -2.0880   -0.8075    2.4147 C.ar      1 <0>        -0.0760
      7 C7         -2.7214   -0.3815    3.5447 C.ar      1 <0>        -0.0971
      8 C8         -3.4342    0.8445    3.5293 C.ar      1 <0>         0.1409
      9 C9         -3.4760    1.6087    2.3352 C.ar      1 <0>        -0.1916
     10 C10        -2.8280    1.1582    1.2233 C.ar      1 <0>        -0.0660
     11 N1         -4.0552    1.2714    4.6192 N.2       1 <0>        -0.3491
     12 N2         -4.6184    2.2439    4.6006 N.1       1 <0>         0.2975
     13 N3         -5.1696    3.1956    4.5825 N.1       1 <0>        -0.0935
     14 N4          0.6897   -0.4778   -1.2066 N.4       1 <0>        -0.4977
     15 C11         2.0678    0.0307   -1.2170 C.3       1 <0>        -0.0509
     16 C12         2.7840   -0.4628   -2.4758 C.3       1 <0>         0.0879
     17 C13         4.2531   -0.0383   -2.4263 C.3       1 <0>         0.0261
     18 O1          4.9483   -0.5972   -3.5427 O.3       1 <0>        -0.2912
     19 C14         6.2730   -0.3148   -3.6487 C.ar      1 <0>         0.2001
     20 C15         6.8932    0.4769   -2.6980 C.ar      1 <0>        -0.2445
     21 C16         8.2439    0.7648   -2.8051 C.ar      1 <0>        -0.0066
     22 C17         8.9864    0.2691   -3.8563 C.ar      1 <0>        -0.1589
     23 C18         8.3823   -0.5295   -4.8238 C.ar      1 <0>         0.2124
     24 C19         7.0166   -0.8272   -4.7147 C.ar      1 <0>        -0.1245
     25 C20         6.6811   -1.6833   -5.8667 C.ar      1 <0>        -0.0889
     26 C21         5.5034   -2.2864   -6.3024 C.ar      1 <0>        -0.0595
     27 C22         5.5086   -3.0492   -7.4502 C.ar      1 <0>        -0.1430
     28 C23         6.6806   -3.2177   -8.1715 C.ar      1 <0>        -0.0804
     29 C24         7.8530   -2.6271   -7.7516 C.ar      1 <0>        -0.1342
     30 C25         7.8678   -1.8529   -6.5954 C.ar      1 <0>         0.1337
     31 N5          8.8744   -1.1477   -5.9596 N.pl3     1 <0>        -0.6062
     32 H1          9.7952   -1.1019   -6.2612 H         1 <0>         0.4236
     33 I1         11.0276    0.7191   -3.9980 I         1 <0>        -0.0295
     34 O2          2.1628    0.1050   -3.6307 O.3       1 <0>        -0.5418
     35 H2          1.0039    1.9031    0.0027 H         1 <0>         0.0814
     36 H3         -0.5459    1.8868   -0.8726 H         1 <0>         0.0835
     37 H4         -0.5289    1.8773    0.9072 H         1 <0>         0.1096
     38 H5          0.2319   -0.1594    2.1383 H         1 <0>         0.1114
     39 H6          0.7568   -1.6008    1.2356 H         1 <0>         0.0850
     40 H7          1.7647   -0.1336    1.2338 H         1 <0>         0.0817
     41 H8         -1.9605   -0.1726   -0.8702 H         1 <0>         0.0973
     42 H9         -1.4185   -1.6235    0.0069 H         1 <0>         0.0992
     43 H10        -1.5443   -1.7406    2.4230 H         1 <0>         0.1365
     44 H11        -2.6808   -0.9747    4.4463 H         1 <0>         0.1464
     45 H12        -4.0148    2.5444    2.3080 H         1 <0>         0.1237
     46 H13        -2.8545    1.7396    0.3135 H         1 <0>         0.1304
     47 H14         0.7033   -1.4867   -1.2121 H         1 <0>         0.4290
     48 H15         2.0530    1.1205   -1.2110 H         1 <0>         0.1426
     49 H16         2.5950   -0.3304   -0.3340 H         1 <0>         0.1489
     50 H17         2.7213   -1.5498   -2.5270 H         1 <0>         0.1352
     51 H18         4.3186    1.0490   -2.4647 H         1 <0>         0.0806
     52 H19         4.7039   -0.3970   -1.5010 H         1 <0>         0.0851
     53 H20         6.3224    0.8717   -1.8705 H         1 <0>         0.1365
     54 H21         8.7198    1.3835   -2.0587 H         1 <0>         0.1409
     55 H22         4.5891   -2.1570   -5.7421 H         1 <0>         0.1270
     56 H23         4.5964   -3.5176   -7.7890 H         1 <0>         0.1292
     57 H24         6.6750   -3.8172   -9.0698 H         1 <0>         0.1337
     58 H25         8.7607   -2.7652   -8.3202 H         1 <0>         0.1288
     59 H26         2.1814    1.0716   -3.6522 H         1 <0>         0.3903
     60 H27         0.2017   -0.1436   -2.0240 H         1 <0>         0.4322
@<TRIPOS>BOND
     1    1    2 1
     2    1   35 1
     3    1   36 1
     4    1   37 1
     5    2    3 1
     6    2    4 1
     7    2   14 1
     8    3   38 1
     9    3   39 1
    10    3   40 1
    11    4    5 1
    12    4   41 1
    13    4   42 1
    14    5   10 ar
    15    5    6 ar
    16    6    7 ar
    17    6   43 1
    18    7    8 ar
    19    7   44 1
    20    8    9 ar
    21    8   11 1
    22    9   10 ar
    23    9   45 1
    24   10   46 1
    25   11   12 2
    26   12   13 2
    27   14   15 1
    28   14   47 1
    29   14   60 1
    30   15   16 1
    31   15   48 1
    32   15   49 1
    33   16   17 1
    34   16   34 1
    35   16   50 1
    36   17   18 1
    37   17   51 1
    38   17   52 1
    39   18   19 1
    40   19   24 ar
    41   19   20 ar
    42   20   21 ar
    43   20   53 1
    44   21   22 ar
    45   21   54 1
    46   22   23 ar
    47   22   33 1
    48   23   31 1
    49   23   24 ar
    50   24   25 1
    51   25   30 ar
    52   25   26 ar
    53   26   27 ar
    54   26   55 1
    55   27   28 ar
    56   27   56 1
    57   28   29 ar
    58   28   57 1
    59   29   30 ar
    60   29   58 1
    61   30   31 1
    62   31   32 1
    63   34   59 1
@<TRIPOS>MOLECULE
CHEMBL168893
   60    63     0     0     0
SMALL
USER_CHARGES

@<TRIPOS>ATOM
      1 C1         -0.0187    1.5258    0.0104 C.3       1 <0>        -0.1820
      2 C2          0.0021   -0.0041    0.0020 C.3       1 <0>         0.0588
      3 C3          0.7421   -0.5109    1.2415 C.3       1 <0>        -0.1817
      4 C4         -1.4333   -0.5336    0.0129 C.3       1 <0>        -0.0874
      5 C5         -2.1387   -0.0476    1.2528 C.ar      1 <0>        -0.1247
      6 C6         -2.0880   -0.8075    2.4147 C.ar      1 <0>        -0.0761
      7 C7         -2.7214   -0.3815    3.5447 C.ar      1 <0>        -0.0970
      8 C8         -3.4342    0.8445    3.5293 C.ar      1 <0>         0.1408
      9 C9         -3.4760    1.6087    2.3352 C.ar      1 <0>        -0.1915
     10 C10        -2.8280    1.1582    1.2233 C.ar      1 <0>        -0.0661
     11 N1         -4.0552    1.2714    4.6192 N.2       1 <0>        -0.3491
     12 N2         -4.6184    2.2439    4.6006 N.1       1 <0>         0.2974
     13 N3         -5.1696    3.1956    4.5825 N.1       1 <0>        -0.0935
     14 N4          0.6897   -0.4778   -1.2066 N.4       1 <0>        -0.4971
     15 C11         2.0678    0.0307   -1.2170 C.3       1 <0>        -0.0511
     16 C12         2.7840   -0.4628   -2.4758 C.3       1 <0>         0.0878
     17 C13         4.2193    0.0668   -2.4867 C.3       1 <0>         0.0261
     18 O1          4.8516   -0.2959   -3.7158 O.3       1 <0>        -0.2911
     19 C14         6.1397    0.1006   -3.8873 C.ar      1 <0>         0.2000
     20 C15         6.7845    0.8173   -2.8945 C.ar      1 <0>        -0.2444
     21 C16         8.0979    1.2215   -3.0684 C.ar      1 <0>        -0.0066
     22 C17         8.7786    0.9170   -4.2286 C.ar      1 <0>        -0.1588
     23 C18         8.1489    0.1968   -5.2402 C.ar      1 <0>         0.2123
     24 C19         6.8214   -0.2185   -5.0644 C.ar      1 <0>        -0.1245
     25 C20         6.4465   -0.9521   -6.2867 C.ar      1 <0>        -0.0889
     26 C21         5.2794   -1.5887   -6.7029 C.ar      1 <0>        -0.0595
     27 C22         5.2371   -2.2036   -7.9356 C.ar      1 <0>        -0.1430
     28 C23         6.3509   -2.1906   -8.7612 C.ar      1 <0>        -0.0804
     29 C24         7.5121   -1.5649   -8.3616 C.ar      1 <0>        -0.1342
     30 C25         7.5742   -0.9381   -7.1208 C.ar      1 <0>         0.1338
     31 N5          8.5816   -0.2383   -6.4803 N.pl3     1 <0>        -0.6062
     32 H1          9.4674   -0.0839   -6.8441 H         1 <0>         0.4236
     33 I1         10.7642    1.5401   -4.4697 I         1 <0>        -0.0295
     34 O2          2.8033   -1.8916   -2.4837 O.3       1 <0>        -0.5422
     35 H2          1.0039    1.9031    0.0027 H         1 <0>         0.0820
     36 H3         -0.5459    1.8868   -0.8726 H         1 <0>         0.0837
     37 H4         -0.5289    1.8773    0.9072 H         1 <0>         0.1097
     38 H5          0.2319   -0.1594    2.1383 H         1 <0>         0.1113
     39 H6          0.7568   -1.6008    1.2356 H         1 <0>         0.0848
     40 H7          1.7647   -0.1336    1.2338 H         1 <0>         0.0811
     41 H8         -1.9605   -0.1726   -0.8702 H         1 <0>         0.0972
     42 H9         -1.4185   -1.6235    0.0069 H         1 <0>         0.0993
     43 H10        -1.5443   -1.7406    2.4230 H         1 <0>         0.1364
     44 H11        -2.6808   -0.9747    4.4463 H         1 <0>         0.1464
     45 H12        -4.0148    2.5444    2.3080 H         1 <0>         0.1236
     46 H13        -2.8545    1.7396    0.3135 H         1 <0>         0.1304
     47 H14         0.7033   -1.4867   -1.2121 H         1 <0>         0.4321
     48 H15         2.0530    1.1205   -1.2110 H         1 <0>         0.1488
     49 H16         2.5950   -0.3304   -0.3340 H         1 <0>         0.1427
     50 H17         2.2568   -0.1017   -3.3589 H         1 <0>         0.1358
     51 H18         4.2068    1.1525   -2.3912 H         1 <0>         0.0851
     52 H19         4.7722   -0.3649   -1.6524 H         1 <0>         0.0806
     53 H20         6.2620    1.0626   -1.9816 H         1 <0>         0.1364
     54 H21         8.5934    1.7806   -2.2884 H         1 <0>         0.1409
     55 H22         4.4105   -1.6006   -6.0616 H         1 <0>         0.1270
     56 H23         4.3331   -2.6978   -8.2595 H         1 <0>         0.1292
     57 H24         6.3083   -2.6752   -9.7254 H         1 <0>         0.1337
     58 H25         8.3744   -1.5611   -9.0119 H         1 <0>         0.1288
     59 H26         3.2576   -2.2830   -1.7250 H         1 <0>         0.3900
     60 H27         0.2017   -0.1436   -2.0240 H         1 <0>         0.4289
@<TRIPOS>BOND
     1    1    2 1
     2    1   35 1
     3    1   36 1
     4    1   37 1
     5    2    3 1
     6    2    4 1
     7    2   14 1
     8    3   38 1
     9    3   39 1
    10    3   40 1
    11    4    5 1
    12    4   41 1
    13    4   42 1
    14    5   10 ar
    15    5    6 ar
    16    6    7 ar
    17    6   43 1
    18    7    8 ar
    19    7   44 1
    20    8    9 ar
    21    8   11 1
    22    9   10 ar
    23    9   45 1
    24   10   46 1
    25   11   12 2
    26   12   13 2
    27   14   15 1
    28   14   47 1
    29   14   60 1
    30   15   16 1
    31   15   48 1
    32   15   49 1
    33   16   17 1
    34   16   34 1
    35   16   50 1
    36   17   18 1
    37   17   51 1
    38   17   52 1
    39   18   19 1
    40   19   24 ar
    41   19   20 ar
    42   20   21 ar
    43   20   53 1
    44   21   22 ar
    45   21   54 1
    46   22   23 ar
    47   22   33 1
    48   23   31 1
    49   23   24 ar
    50   24   25 1
    51   25   30 ar
    52   25   26 ar
    53   26   27 ar
    54   26   55 1
    55   27   28 ar
    56   27   56 1
    57   28   29 ar
    58   28   57 1
    59   29   30 ar
    60   29   58 1
    61   30   31 1
    62   31   32 1
    63   34   59 1
@<TRIPOS>MOLECULE
CHEMBL1203997
   56    58     0     0     0
SMALL
USER_CHARGES

@<TRIPOS>ATOM
      1 C1         -1.0743   -0.5357    0.5764 C.ar      1 <0>        -0.0834
      2 C2         -0.9693   -1.7779    1.1767 C.ar      1 <0>        -0.1250
      3 C3          0.2351   -2.4506    1.1710 C.ar      1 <0>        -0.0545
      4 C4          1.3493   -1.8753    0.5578 C.ar      1 <0>        -0.1477
      5 C5          1.2365   -0.6218   -0.0460 C.ar      1 <0>        -0.0853
      6 C6          0.0263    0.0401   -0.0331 C.ar      1 <0>        -0.1251
      7 C7          2.6431   -2.5902    0.5483 C.2       1 <0>         0.5668
      8 O1          2.7384   -3.6815    1.0752 O.2       1 <0>        -0.5148
      9 N1          3.7170   -2.0320   -0.0446 N.am      1 <0>        -0.6747
     10 C8          4.9632   -2.6622    0.0299 C.ar      1 <0>         0.1667
     11 C9          6.1225   -1.9030    0.1240 C.ar      1 <0>        -0.1423
     12 C10         7.3516   -2.5285    0.1979 C.ar      1 <0>        -0.0871
     13 C11         7.4289   -3.9091    0.1779 C.ar      1 <0>        -0.1276
     14 C12         6.2766   -4.6678    0.0839 C.ar      1 <0>        -0.0873
     15 C13         5.0439   -4.0487    0.0159 C.ar      1 <0>        -0.1182
     16 C14         8.7718   -4.5881    0.2583 C.3       1 <0>        -0.0970
     17 C15         9.1268   -4.8443    1.7243 C.3       1 <0>        -0.0077
     18 N2         10.4359   -5.5063    1.8027 N.4       1 <0>        -0.5035
     19 C16        10.7767   -5.7523    3.2102 C.3       1 <0>        -0.0418
     20 C17        12.1401   -6.4418    3.2918 C.3       1 <0>         0.0858
     21 H1         12.8985   -5.8018    2.8408 H         1 <0>         0.1358
     22 C18        12.4952   -6.6980    4.7579 C.3       1 <0>         0.0296
     23 O2         13.8168   -7.2350    4.8411 O.3       1 <0>        -0.3028
     24 C19        14.2895   -7.5210    6.0827 C.ar      1 <0>         0.1165
     25 C20        13.4954   -7.2950    7.1976 C.ar      1 <0>        -0.2095
     26 C21        13.9780   -7.5870    8.4586 C.ar      1 <0>        -0.0800
     27 C22        15.2515   -8.1037    8.6102 C.ar      1 <0>        -0.1475
     28 C23        16.0451   -8.3295    7.5006 C.ar      1 <0>        -0.0765
     29 C24        15.5648   -8.0449    6.2370 C.ar      1 <0>        -0.1446
     30 O3         12.0877   -7.6855    2.5900 O.3       1 <0>        -0.5436
     31 H2         -2.0206   -0.0153    0.5797 H         1 <0>         0.1331
     32 H3         -1.8321   -2.2217    1.6511 H         1 <0>         0.1352
     33 H4          0.3157   -3.4200    1.6402 H         1 <0>         0.1378
     34 H5          2.0949   -0.1711   -0.5218 H         1 <0>         0.1248
     35 H6         -0.0623    1.0100   -0.4999 H         1 <0>         0.1338
     36 H7          3.6256   -1.1932   -0.5231 H         1 <0>         0.4151
     37 H8          6.0629   -0.8248    0.1389 H         1 <0>         0.1327
     38 H9          8.2534   -1.9388    0.2710 H         1 <0>         0.1291
     39 H10         6.3404   -5.7458    0.0682 H         1 <0>         0.1284
     40 H11         4.1441   -4.6419   -0.0531 H         1 <0>         0.1459
     41 H12         8.7318   -5.5368   -0.2770 H         1 <0>         0.0965
     42 H13         9.5301   -3.9481   -0.1927 H         1 <0>         0.0963
     43 H14         9.1668   -3.8957    2.2596 H         1 <0>         0.1343
     44 H15         8.3684   -5.4843    2.1753 H         1 <0>         0.1341
     45 H16        10.3989   -6.3845    1.3071 H         1 <0>         0.4335
     46 H17        10.8167   -4.8036    3.7455 H         1 <0>         0.1469
     47 H18        10.0184   -6.3923    3.6612 H         1 <0>         0.1399
     48 H19        12.4482   -5.7606    5.3122 H         1 <0>         0.0813
     49 H20        11.7869   -7.4082    5.1844 H         1 <0>         0.0764
     50 H21        12.5009   -6.8907    7.0798 H         1 <0>         0.1234
     51 H22        13.3602   -7.4112    9.3268 H         1 <0>         0.1285
     52 H23        15.6272   -8.3311    9.5969 H         1 <0>         0.1296
     53 H24        17.0396   -8.7329    7.6216 H         1 <0>         0.1352
     54 H25        16.1834   -8.2256    5.3703 H         1 <0>         0.1332
     55 H26        11.4329   -8.3061    2.9380 H         1 <0>         0.3903
     56 H27        11.1379   -4.9139    1.3852 H         1 <0>         0.4307
@<TRIPOS>BOND
     1    1    6 ar
     2    1    2 ar
     3    1   31 1
     4    2    3 ar
     5    2   32 1
     6    3    4 ar
     7    3   33 1
     8    4    5 ar
     9    4    7 1
    10    5    6 ar
    11    5   34 1
    12    6   35 1
    13    7    8 2
    14    7    9 am
    15    9   10 1
    16    9   36 1
    17   10   15 ar
    18   10   11 ar
    19   11   12 ar
    20   11   37 1
    21   12   13 ar
    22   12   38 1
    23   13   14 ar
    24   13   16 1
    25   14   15 ar
    26   14   39 1
    27   15   40 1
    28   16   17 1
    29   16   41 1
    30   16   42 1
    31   17   18 1
    32   17   43 1
    33   17   44 1
    34   18   19 1
    35   18   45 1
    36   18   56 1
    37   19   20 1
    38   19   46 1
    39   19   47 1
    40   20   21 1
    41   20   22 1
    42   20   30 1
    43   22   23 1
    44   22   48 1
    45   22   49 1
    46   23   24 1
    47   24   29 ar
    48   24   25 ar
    49   25   26 ar
    50   25   50 1
    51   26   27 ar
    52   26   51 1
    53   27   28 ar
    54   27   52 1
    55   28   29 ar
    56   28   53 1
    57   29   54 1
    58   30   55 1
@<TRIPOS>MOLECULE
CHEMBL236514
   54    58     0     0     0
SMALL
USER_CHARGES

@<TRIPOS>ATOM
      1 C1         -0.0167    1.3833    0.0096 C.ar      1 <0>        -0.0617
      2 C2          1.1579    2.1030    0.0023 C.ar      1 <0>        -0.1567
      3 C3          2.3812    1.4395   -0.0134 C.ar      1 <0>         0.1320
      4 C4          2.4054    0.0341   -0.0212 C.ar      1 <0>        -0.1320
      5 C5          3.8196   -0.3477   -0.0373 C.2       1 <0>        -0.1883
      6 C6          4.5327    0.7892   -0.0383 C.2       1 <0>         0.0491
      7 N1          3.6897    1.8682   -0.0241 N.pl3     1 <0>        -0.5918
      8 H1          3.9721    2.7962   -0.0222 H         1 <0>         0.4218
      9 C7          1.2041   -0.6852   -0.0136 C.ar      1 <0>         0.1688
     10 C8          0.0021   -0.0041    0.0020 C.ar      1 <0>        -0.2424
     11 O1          1.2203   -2.0438   -0.0214 O.3       1 <0>        -0.2967
     12 C9         -0.0451   -2.7078   -0.0127 C.3       1 <0>         0.0300
     13 C10         0.1735   -4.2221   -0.0234 C.3       1 <0>         0.0883
     14 H2          0.8005   -4.4927   -0.8729 H         1 <0>         0.1346
     15 C11        -1.1771   -4.9314   -0.1399 C.3       1 <0>        -0.0506
     16 N2         -0.9673   -6.3853   -0.1502 N.4       1 <0>        -0.4978
     17 C12        -2.2640   -7.0665   -0.2621 C.3       1 <0>         0.0598
     18 C13        -3.1442   -6.6866    0.9304 C.3       1 <0>        -0.1270
     19 C14        -4.4948   -7.3960    0.8138 C.3       1 <0>        -0.0798
     20 C15        -4.2763   -8.9102    0.8032 C.3       1 <0>        -0.1202
     21 C16        -3.3961   -9.2901   -0.3892 C.3       1 <0>        -0.0792
     22 C17        -2.0455   -8.5807   -0.2727 C.3       1 <0>        -0.1265
     23 C18        -4.0850   -8.8651   -1.6876 C.3       1 <0>        -0.1202
     24 C19        -4.3036   -7.3508   -1.6769 C.3       1 <0>        -0.0797
     25 C20        -5.1838   -6.9710   -0.4845 C.3       1 <0>        -0.1196
     26 C21        -2.9530   -6.6415   -1.5604 C.3       1 <0>        -0.1278
     27 O2          0.8169   -4.6190    1.1892 O.3       1 <0>        -0.5430
     28 H3         -0.9625    1.9045    0.0260 H         1 <0>         0.1311
     29 H4          1.1294    3.1826    0.0084 H         1 <0>         0.1259
     30 H5          4.2135   -1.3532   -0.0463 H         1 <0>         0.1484
     31 H6          5.6112    0.8449   -0.0482 H         1 <0>         0.1756
     32 H7         -0.9273   -0.5542    0.0080 H         1 <0>         0.1237
     33 H8         -0.5968   -2.4266    0.8843 H         1 <0>         0.0765
     34 H9         -0.6142   -2.4166   -0.8956 H         1 <0>         0.0812
     35 H10        -1.8042   -4.6608    0.7096 H         1 <0>         0.1407
     36 H11        -1.6679   -4.6287   -1.0649 H         1 <0>         0.1474
     37 H12        -0.3869   -6.6359   -0.9365 H         1 <0>         0.4279
     38 H13        -2.6534   -6.9893    1.8553 H         1 <0>         0.0877
     39 H14        -3.2999   -5.6078    0.9379 H         1 <0>         0.0855
     40 H15        -5.1219   -7.1253    1.6633 H         1 <0>         0.0927
     41 H16        -3.7855   -9.2130    1.7281 H         1 <0>         0.0716
     42 H17        -5.2385   -9.4156    0.7201 H         1 <0>         0.0806
     43 H18        -3.2404  -10.3689   -0.3968 H         1 <0>         0.0935
     44 H19        -1.4185   -8.8514   -1.1222 H         1 <0>         0.0880
     45 H20        -1.5547   -8.8835    0.6522 H         1 <0>         0.0880
     46 H21        -3.4580   -9.1358   -2.5371 H         1 <0>         0.0717
     47 H22        -5.0472   -9.3705   -1.7706 H         1 <0>         0.0805
     48 H23        -4.7944   -7.0481   -2.6019 H         1 <0>         0.0929
     49 H24        -6.1459   -7.4763   -0.5675 H         1 <0>         0.0808
     50 H25        -5.3394   -5.8922   -0.4769 H         1 <0>         0.0703
     51 H26        -3.1087   -5.5627   -1.5528 H         1 <0>         0.0862
     52 H27        -2.3259   -6.9121   -2.4099 H         1 <0>         0.0881
     53 H28         0.3144   -4.4088    1.9882 H         1 <0>         0.3891
     54 H29        -0.5130   -6.6656    0.7061 H         1 <0>         0.4308
@<TRIPOS>BOND
     1    1   10 ar
     2    1    2 ar
     3    1   28 1
     4    2    3 ar
     5    2   29 1
     6    3    7 1
     7    3    4 ar
     8    4    5 1
     9    4    9 ar
    10    5    6 2
    11    5   30 1
    12    6    7 1
    13    6   31 1
    14    7    8 1
    15    9   10 ar
    16    9   11 1
    17   10   32 1
    18   11   12 1
    19   12   13 1
    20   12   33 1
    21   12   34 1
    22   13   14 1
    23   13   15 1
    24   13   27 1
    25   15   16 1
    26   15   35 1
    27   15   36 1
    28   16   17 1
    29   16   37 1
    30   16   54 1
    31   17   22 1
    32   17   26 1
    33   17   18 1
    34   18   19 1
    35   18   38 1
    36   18   39 1
    37   19   25 1
    38   19   20 1
    39   19   40 1
    40   20   21 1
    41   20   41 1
    42   20   42 1
    43   21   22 1
    44   21   23 1
    45   21   43 1
    46   22   44 1
    47   22   45 1
    48   23   24 1
    49   23   46 1
    50   23   47 1
    51   24   25 1
    52   24   26 1
    53   24   48 1
    54   25   49 1
    55   25   50 1
    56   26   51 1
    57   26   52 1
    58   27   53 1
@<TRIPOS>MOLECULE
CHEMBL1089734
   61    64     0     0     0
SMALL
USER_CHARGES

@<TRIPOS>ATOM
      1 C1         -1.0809   -0.5463    0.5517 C.ar      1 <0>        -0.1077
      2 C2         -0.9759   -1.7885    1.1514 C.ar      1 <0>        -0.1179
      3 C3          0.2290   -2.4614    1.1444 C.ar      1 <0>        -0.1028
      4 C4          1.3415   -1.8869    0.5315 C.ar      1 <0>        -0.0657
      5 C5          1.2296   -0.6349   -0.0712 C.ar      1 <0>        -0.1033
      6 C6          0.0196    0.0286   -0.0580 C.ar      1 <0>        -0.1185
      7 C7          2.6389   -2.6046    0.5210 C.ar      1 <0>        -0.0008
      8 C8          2.7459   -3.8598    1.1205 C.ar      1 <0>        -0.1207
      9 C9          3.9499   -4.5271    1.1114 C.ar      1 <0>        -0.0470
     10 C10         5.0650   -3.9470    0.5011 C.ar      1 <0>        -0.1507
     11 C11         4.9564   -2.6900   -0.0994 C.ar      1 <0>        -0.0781
     12 C12         3.7502   -2.0268   -0.0933 C.ar      1 <0>        -0.1206
     13 C13         6.3574   -4.6616    0.4912 C.2       1 <0>         0.5671
     14 O1          6.4514   -5.7552    1.0142 O.2       1 <0>        -0.5149
     15 N1          7.4326   -4.1016   -0.0977 N.am      1 <0>        -0.6748
     16 C14         8.6783   -4.7326   -0.0234 C.ar      1 <0>         0.1669
     17 C15         9.8378   -3.9742    0.0756 C.ar      1 <0>        -0.1425
     18 C16        11.0665   -4.6004    0.1488 C.ar      1 <0>        -0.0873
     19 C17        11.1433   -5.9809    0.1231 C.ar      1 <0>        -0.1276
     20 C18         9.9909   -6.7389    0.0247 C.ar      1 <0>        -0.0873
     21 C19         8.7586   -6.1190   -0.0426 C.ar      1 <0>        -0.1181
     22 C20        12.4859   -6.6608    0.2022 C.3       1 <0>        -0.0967
     23 C21        12.8392   -6.9232    1.6675 C.3       1 <0>        -0.0079
     24 N2         14.1479   -7.5860    1.7446 N.4       1 <0>        -0.5052
     25 C22        14.4871   -7.8380    3.1515 C.3       1 <0>        -0.0428
     26 C23        15.8502   -8.5282    3.2317 C.3       1 <0>         0.1417
     27 H1         16.6093   -7.8866    2.7843 H         1 <0>         0.1338
     28 C24        16.1982   -8.7867    4.6751 C.ar      1 <0>        -0.2004
     29 C25        16.9802   -7.8850    5.3811 C.ar      1 <0>        -0.0549
     30 C26        17.2751   -8.1640    6.7066 C.ar      1 <0>        -0.1643
     31 C27        16.7834   -9.3234    7.2764 C.ar      1 <0>         0.1224
     32 N3         16.0429  -10.1585    6.5743 N.ar      1 <0>        -0.4748
     33 C28        15.7374   -9.9224    5.3133 C.ar      1 <0>         0.1174
     34 O2         15.7982   -9.7690    2.5247 O.3       1 <0>        -0.5462
     35 H2         -2.0270   -0.0254    0.5557 H         1 <0>         0.1270
     36 H3         -1.8383   -2.2324    1.6263 H         1 <0>         0.1283
     37 H4          0.3100   -3.4309    1.6132 H         1 <0>         0.1274
     38 H5          2.0882   -0.1849   -0.5473 H         1 <0>         0.1266
     39 H6         -0.0682    0.9987   -0.5246 H         1 <0>         0.1279
     40 H7          1.8839   -4.3080    1.5922 H         1 <0>         0.1373
     41 H8          4.0327   -5.4984    1.5762 H         1 <0>         0.1404
     42 H9          5.8177   -2.2406   -0.5711 H         1 <0>         0.1271
     43 H10         3.6650   -1.0570   -0.5610 H         1 <0>         0.1361
     44 H11         7.3423   -3.2609   -0.5731 H         1 <0>         0.4148
     45 H12         9.7785   -2.8960    0.0949 H         1 <0>         0.1325
     46 H13        11.9684   -4.0113    0.2257 H         1 <0>         0.1288
     47 H14        10.0543   -7.8168    0.0049 H         1 <0>         0.1284
     48 H15         7.8586   -6.7116   -0.1150 H         1 <0>         0.1460
     49 H16        12.4462   -7.6072   -0.3371 H         1 <0>         0.0963
     50 H17        13.2450   -6.0192   -0.2453 H         1 <0>         0.0958
     51 H18        12.8789   -5.9768    2.2068 H         1 <0>         0.1334
     52 H19        12.0801   -7.5648    2.1150 H         1 <0>         0.1337
     53 H20        14.1112   -8.4621    1.2454 H         1 <0>         0.4326
     54 H21        14.5268   -6.8915    3.6908 H         1 <0>         0.1445
     55 H22        13.7281   -8.4796    3.5990 H         1 <0>         0.1378
     56 H23        17.3509   -6.9870    4.9094 H         1 <0>         0.1410
     57 H24        17.8816   -7.4842    7.2866 H         1 <0>         0.1471
     58 H25        17.0086   -9.5480    8.3085 H         1 <0>         0.1672
     59 H26        15.1238  -10.6272    4.7718 H         1 <0>         0.1531
     60 H27        15.1427  -10.3908    2.8693 H         1 <0>         0.3901
     61 H28        14.8506   -6.9921    1.3304 H         1 <0>         0.4293
@<TRIPOS>BOND
     1    1    6 ar
     2    1    2 ar
     3    1   35 1
     4    2    3 ar
     5    2   36 1
     6    3    4 ar
     7    3   37 1
     8    4    5 ar
     9    4    7 1
    10    5    6 ar
    11    5   38 1
    12    6   39 1
    13    7   12 ar
    14    7    8 ar
    15    8    9 ar
    16    8   40 1
    17    9   10 ar
    18    9   41 1
    19   10   11 ar
    20   10   13 1
    21   11   12 ar
    22   11   42 1
    23   12   43 1
    24   13   14 2
    25   13   15 am
    26   15   16 1
    27   15   44 1
    28   16   21 ar
    29   16   17 ar
    30   17   18 ar
    31   17   45 1
    32   18   19 ar
    33   18   46 1
    34   19   20 ar
    35   19   22 1
    36   20   21 ar
    37   20   47 1
    38   21   48 1
    39   22   23 1
    40   22   49 1
    41   22   50 1
    42   23   24 1
    43   23   51 1
    44   23   52 1
    45   24   25 1
    46   24   53 1
    47   24   61 1
    48   25   26 1
    49   25   54 1
    50   25   55 1
    51   26   27 1
    52   26   28 1
    53   26   34 1
    54   28   33 ar
    55   28   29 ar
    56   29   30 ar
    57   29   56 1
    58   30   31 ar
    59   30   57 1
    60   31   32 ar
    61   31   58 1
    62   32   33 ar
    63   33   59 1
    64   34   60 1
@<TRIPOS>MOLECULE
CHEMBL320696
   59    61     0     0     0
SMALL
USER_CHARGES

@<TRIPOS>ATOM
      1 C1          1.2441    0.1277    0.4326 C.3       1 <0>        -0.1850
      2 C2          0.9753   -1.3757    0.3411 C.3       1 <0>         0.0241
      3 C3          1.5886   -2.0782    1.5541 C.3       1 <0>        -0.1868
      4 N1         -0.4742   -1.6135    0.3187 N.4       1 <0>        -0.5025
      5 C4         -0.7325   -3.0445    0.1108 C.3       1 <0>        -0.0437
      6 C5         -2.2422   -3.2922    0.0874 C.3       1 <0>         0.0877
      7 C6         -2.5110   -4.7956   -0.0040 C.3       1 <0>         0.0423
      8 O1         -3.9166   -5.0348    0.0914 O.3       1 <0>        -0.2183
      9 N2         -4.2743   -6.4029    0.0173 N.2       1 <0>        -0.3071
     10 C7         -5.5177   -6.7511    0.0914 C.2       1 <0>         0.1724
     11 C8         -6.0829   -8.1282    0.0400 C.ar      1 <0>        -0.0798
     12 C9         -5.4996   -9.3629    0.3272 C.ar      1 <0>        -0.0698
     13 C10        -6.2341  -10.5223    0.1954 C.ar      1 <0>        -0.1218
     14 C11        -7.5521  -10.4638   -0.2224 C.ar      1 <0>        -0.0870
     15 C12        -8.1403   -9.2455   -0.5055 C.ar      1 <0>        -0.1064
     16 C13        -7.4216   -8.0735   -0.3752 C.ar      1 <0>        -0.0542
     17 C14        -7.7876   -6.6391   -0.5844 C.3       1 <0>        -0.0797
     18 C15        -6.7170   -5.8553    0.2556 C.3       1 <0>         0.1270
     19 C16        -6.6086   -4.5094   -0.4658 C.3       1 <0>        -0.1106
     20 C17        -7.2166   -3.4405    0.4508 C.3       1 <0>        -0.1009
     21 C18        -8.6795   -3.8471    0.8226 C.3       1 <0>        -0.1202
     22 C19        -9.3115   -4.6593   -0.2848 C.3       1 <0>        -0.1156
     23 C20        -9.1114   -6.1636   -0.1110 C.3       1 <0>        -0.1123
     24 O2         -7.0945   -5.7105    1.6262 O.3       1 <0>        -0.3322
     25 C21        -7.3070   -6.9501    2.3046 C.3       1 <0>         0.0106
     26 O3         -2.8150   -2.6361   -1.0454 O.3       1 <0>        -0.5443
     27 H1          2.3196    0.3041    0.4492 H         1 <0>         0.1080
     28 H2          0.8071    0.6282   -0.4315 H         1 <0>         0.0829
     29 H3          0.7971    0.5219    1.3452 H         1 <0>         0.0827
     30 H4          1.4222   -1.7699   -0.5715 H         1 <0>         0.1391
     31 H5          1.3971   -3.1492    1.4889 H         1 <0>         0.0805
     32 H6          2.6641   -1.9018    1.5707 H         1 <0>         0.1077
     33 H7          1.1416   -1.6840    2.4667 H         1 <0>         0.0833
     34 H8         -0.8762   -1.3234    1.1975 H         1 <0>         0.4279
     35 H9         -0.2982   -3.3579   -0.8386 H         1 <0>         0.1400
     36 H10        -0.2830   -3.6166    0.9224 H         1 <0>         0.1465
     37 H11        -2.6891   -2.8980    1.0001 H         1 <0>         0.1324
     38 H12        -2.1421   -5.1733   -0.9576 H         1 <0>         0.0717
     39 H13        -1.9993   -5.3065    0.8116 H         1 <0>         0.0757
     40 H14        -4.4710   -9.4105    0.6528 H         1 <0>         0.1272
     41 H15        -5.7805  -11.4768    0.4181 H         1 <0>         0.1344
     42 H16        -8.1234  -11.3741   -0.3282 H         1 <0>         0.1347
     43 H17        -9.1692   -9.2099   -0.8316 H         1 <0>         0.1314
     44 H18        -7.6634   -6.3817   -1.6362 H         1 <0>         0.0998
     45 H19        -5.5614   -4.2775   -0.6602 H         1 <0>         0.0869
     46 H20        -7.1600   -4.5480   -1.4052 H         1 <0>         0.0824
     47 H21        -6.6200   -3.3584    1.3593 H         1 <0>         0.0646
     48 H22        -7.2262   -2.4809   -0.0661 H         1 <0>         0.0563
     49 H23        -8.6653   -4.4391    1.7378 H         1 <0>         0.0808
     50 H24        -9.2706   -2.9465    0.9885 H         1 <0>         0.0559
     51 H25       -10.3804   -4.4473   -0.3105 H         1 <0>         0.0650
     52 H26        -8.8724   -4.3588   -1.2360 H         1 <0>         0.0617
     53 H27        -9.8906   -6.6935   -0.6588 H         1 <0>         0.0662
     54 H28        -9.2097   -6.3986    0.9488 H         1 <0>         0.0730
     55 H29        -8.0314   -7.5477    1.7511 H         1 <0>         0.0587
     56 H30        -6.3644   -7.4932    2.3729 H         1 <0>         0.0431
     57 H31        -7.6874   -6.7550    3.3073 H         1 <0>         0.0904
     58 H32        -2.4633   -2.9377   -1.8942 H         1 <0>         0.3899
     59 H33        -0.8903   -1.0839   -0.4326 H         1 <0>         0.4333
@<TRIPOS>BOND
     1    1    2 1
     2    1   27 1
     3    1   28 1
     4    1   29 1
     5    2    3 1
     6    2    4 1
     7    2   30 1
     8    3   31 1
     9    3   32 1
    10    3   33 1
    11    4    5 1
    12    4   34 1
    13    4   59 1
    14    5    6 1
    15    5   35 1
    16    5   36 1
    17    6    7 1
    18    6   26 1
    19    6   37 1
    20    7    8 1
    21    7   38 1
    22    7   39 1
    23    8    9 1
    24    9   10 2
    25   10   18 1
    26   10   11 1
    27   11   16 ar
    28   11   12 ar
    29   12   13 ar
    30   12   40 1
    31   13   14 ar
    32   13   41 1
    33   14   15 ar
    34   14   42 1
    35   15   16 ar
    36   15   43 1
    37   16   17 1
    38   17   23 1
    39   17   18 1
    40   17   44 1
    41   18   19 1
    42   18   24 1
    43   19   20 1
    44   19   45 1
    45   19   46 1
    46   20   21 1
    47   20   47 1
    48   20   48 1
    49   21   22 1
    50   21   49 1
    51   21   50 1
    52   22   23 1
    53   22   51 1
    54   22   52 1
    55   23   53 1
    56   23   54 1
    57   24   25 1
    58   25   55 1
    59   25   56 1
    60   25   57 1
    61   26   58 1
@<TRIPOS>MOLECULE
CHEMBL320696
   59    61     0     0     0
SMALL
USER_CHARGES

@<TRIPOS>ATOM
      1 C1          0.8127    0.5259   -1.0661 C.3       1 <0>        -0.1850
      2 C2          0.6282   -0.9917   -1.0072 C.3       1 <0>         0.0240
      3 C3          1.4336   -1.5584    0.1637 C.3       1 <0>        -0.1866
      4 N1         -0.7947   -1.3051   -0.8199 N.4       1 <0>        -0.5024
      5 C4         -0.9882   -2.7599   -0.8831 C.3       1 <0>        -0.0438
      6 C5         -2.4702   -3.0863   -0.6880 C.3       1 <0>         0.0887
      7 C6         -2.6548   -4.6040   -0.6291 C.3       1 <0>         0.0436
      8 O1         -4.0192   -4.9067   -0.3310 O.3       1 <0>        -0.2117
      9 N2         -4.2979   -6.2928   -0.2535 N.2       1 <0>        -0.3146
     10 C7         -5.4976   -6.6974    0.0103 C.2       1 <0>         0.1684
     11 C8         -5.9581   -8.1012    0.0249 C.ar      1 <0>        -0.0815
     12 C9         -5.2496   -9.2841   -0.2248 C.ar      1 <0>        -0.0665
     13 C10        -5.8906  -10.5014   -0.1525 C.ar      1 <0>        -0.1244
     14 C11        -7.2360  -10.5600    0.1661 C.ar      1 <0>        -0.0846
     15 C12        -7.9427   -9.3979    0.4126 C.ar      1 <0>        -0.1077
     16 C13        -7.3115   -8.1695    0.3445 C.ar      1 <0>        -0.0540
     17 C14        -7.8505   -6.7763    0.5691 C.3       1 <0>        -0.0767
     18 C15        -6.6737   -5.8190    0.3644 C.3       1 <0>         0.1410
     19 C16        -6.3800   -5.0634    1.6602 C.3       1 <0>        -0.1110
     20 C17        -7.3428   -3.8835    1.7948 C.3       1 <0>        -0.1138
     21 C18        -8.5016   -4.2636    2.7149 C.3       1 <0>        -0.1227
     22 C19        -9.2792   -5.4420    2.1303 C.3       1 <0>        -0.1207
     23 C20        -8.3669   -6.6542    2.0046 C.3       1 <0>        -0.1228
     24 O2         -6.9548   -4.9108   -0.7025 O.3       1 <0>        -0.3496
     25 C21        -7.1571   -5.5445   -1.9672 C.3       1 <0>         0.0244
     26 O3         -3.2225   -2.5570   -1.7816 O.3       1 <0>        -0.5420
     27 H1          1.8685    0.7584   -1.2051 H         1 <0>         0.1079
     28 H2          0.2389    0.9296   -1.9003 H         1 <0>         0.0829
     29 H3          0.4622    0.9710   -0.1348 H         1 <0>         0.0827
     30 H4          0.9787   -1.4368   -1.9385 H         1 <0>         0.1391
     31 H5          1.3021   -2.6396    0.2056 H         1 <0>         0.0805
     32 H6          2.4894   -1.3259    0.0247 H         1 <0>         0.1077
     33 H7          1.0831   -1.1134    1.0949 H         1 <0>         0.0832
     34 H8         -1.0986   -0.9641    0.0798 H         1 <0>         0.4278
     35 H9         -0.6600   -3.1282   -1.8550 H         1 <0>         0.1396
     36 H10        -0.4042   -3.2386   -0.0970 H         1 <0>         0.1462
     37 H11        -2.8207   -2.6413    0.2433 H         1 <0>         0.1312
     38 H12        -2.3878   -5.0401   -1.5917 H         1 <0>         0.0702
     39 H13        -2.0125   -5.0182    0.1481 H         1 <0>         0.0740
     40 H14        -4.1997   -9.2414   -0.4745 H         1 <0>         0.1275
     41 H15        -5.3422  -11.4116   -0.3452 H         1 <0>         0.1338
     42 H16        -7.7351  -11.5161    0.2220 H         1 <0>         0.1348
     43 H17        -8.9928   -9.4496    0.6595 H         1 <0>         0.1321
     44 H18        -8.6518   -6.5636   -0.1385 H         1 <0>         0.1061
     45 H19        -6.5079   -5.7350    2.5091 H         1 <0>         0.0980
     46 H20        -5.3544   -4.6946    1.6408 H         1 <0>         0.0668
     47 H21        -6.8122   -3.0289    2.2144 H         1 <0>         0.0601
     48 H22        -7.7324   -3.6197    0.8115 H         1 <0>         0.0829
     49 H23        -8.1094   -4.5400    3.6936 H         1 <0>         0.0610
     50 H24        -9.1699   -3.4095    2.8251 H         1 <0>         0.0651
     51 H25       -10.1175   -5.6828    2.7841 H         1 <0>         0.0676
     52 H26        -9.6567   -5.1731    1.1438 H         1 <0>         0.0664
     53 H27        -8.9238   -7.5535    2.2676 H         1 <0>         0.0713
     54 H28        -7.5232   -6.5386    2.6850 H         1 <0>         0.0848
     55 H29        -6.2951   -6.1687   -2.2028 H         1 <0>         0.0387
     56 H30        -8.0531   -6.1637   -1.9241 H         1 <0>         0.0485
     57 H31        -7.2773   -4.7846   -2.7393 H         1 <0>         0.0913
     58 H32        -2.9638   -2.9096   -2.6441 H         1 <0>         0.3889
     59 H33        -1.3354   -0.8620   -1.5475 H         1 <0>         0.4334
@<TRIPOS>BOND
     1    1    2 1
     2    1   27 1
     3    1   28 1
     4    1   29 1
     5    2    3 1
     6    2    4 1
     7    2   30 1
     8    3   31 1
     9    3   32 1
    10    3   33 1
    11    4    5 1
    12    4   34 1
    13    4   59 1
    14    5    6 1
    15    5   35 1
    16    5   36 1
    17    6    7 1
    18    6   26 1
    19    6   37 1
    20    7    8 1
    21    7   38 1
    22    7   39 1
    23    8    9 1
    24    9   10 2
    25   10   18 1
    26   10   11 1
    27   11   16 ar
    28   11   12 ar
    29   12   13 ar
    30   12   40 1
    31   13   14 ar
    32   13   41 1
    33   14   15 ar
    34   14   42 1
    35   15   16 ar
    36   15   43 1
    37   16   17 1
    38   17   23 1
    39   17   18 1
    40   17   44 1
    41   18   19 1
    42   18   24 1
    43   19   20 1
    44   19   45 1
    45   19   46 1
    46   20   21 1
    47   20   47 1
    48   20   48 1
    49   21   22 1
    50   21   49 1
    51   21   50 1
    52   22   23 1
    53   22   51 1
    54   22   52 1
    55   23   53 1
    56   23   54 1
    57   24   25 1
    58   25   55 1
    59   25   56 1
    60   25   57 1
    61   26   58 1
@<TRIPOS>MOLECULE
CHEMBL320696
   59    61     0     0     0
SMALL
USER_CHARGES

@<TRIPOS>ATOM
      1 C1          0.0329    1.4814    0.0650 C.3       1 <0>        -0.1849
      2 C2          0.0433   -0.0485    0.0484 C.3       1 <0>         0.0240
      3 C3          0.7783   -0.5671    1.2860 C.3       1 <0>        -0.1867
      4 N1         -1.3383   -0.5476    0.0545 N.4       1 <0>        -0.5024
      5 C4         -1.3312   -2.0102   -0.0821 C.3       1 <0>        -0.0436
      6 C5         -2.7702   -2.5300   -0.0758 C.3       1 <0>         0.0884
      7 C6         -2.7599   -4.0599   -0.0924 C.3       1 <0>         0.0440
      8 O1         -4.0978   -4.5467    0.0309 O.3       1 <0>        -0.2134
      9 N2         -4.1995   -5.9590    0.0262 N.2       1 <0>        -0.3134
     10 C7         -5.3580   -6.5242    0.1315 C.2       1 <0>         0.1687
     11 C8         -5.6280   -7.9745    0.0518 C.ar      1 <0>        -0.0814
     12 C9         -4.7467   -9.0449   -0.1510 C.ar      1 <0>        -0.0665
     13 C10        -5.2258  -10.3358   -0.1910 C.ar      1 <0>        -0.1244
     14 C11        -6.5783  -10.5799   -0.0306 C.ar      1 <0>        -0.0847
     15 C12        -7.4547   -9.5300    0.1702 C.ar      1 <0>        -0.1077
     16 C13        -6.9874   -8.2293    0.2121 C.ar      1 <0>        -0.0548
     17 C14        -7.7269   -6.9277    0.4140 C.3       1 <0>        -0.0771
     18 C15        -6.6727   -5.8188    0.3642 C.3       1 <0>         0.1405
     19 C16        -6.9652   -4.8768   -0.8035 C.3       1 <0>        -0.1135
     20 C17        -8.0370   -3.8674   -0.3912 C.3       1 <0>        -0.1131
     21 C18        -9.4022   -4.3245   -0.9021 C.3       1 <0>        -0.1228
     22 C19        -9.7707   -5.6771   -0.2946 C.3       1 <0>        -0.1202
     23 C20        -8.7415   -6.7360   -0.7156 C.3       1 <0>        -0.1214
     24 O2         -6.6410   -5.1033    1.6008 O.3       1 <0>        -0.3513
     25 C21        -6.2902   -5.9073    2.7288 C.3       1 <0>         0.0209
     26 O3         -3.4567   -2.0457   -1.2317 O.3       1 <0>        -0.5437
     27 H1          1.0581    1.8517    0.0604 H         1 <0>         0.1079
     28 H2         -0.4907    1.8508   -0.8167 H         1 <0>         0.0829
     29 H3         -0.4759    1.8315    0.9631 H         1 <0>         0.0826
     30 H4          0.5521   -0.3987   -0.8497 H         1 <0>         0.1391
     31 H5          0.7857   -1.6570    1.2741 H         1 <0>         0.0805
     32 H6          1.8035   -0.1967    1.2814 H         1 <0>         0.1077
     33 H7          0.2695   -0.2169    2.1841 H         1 <0>         0.0832
     34 H8         -1.7840   -0.2931    0.9232 H         1 <0>         0.4279
     35 H9         -0.8498   -2.2852   -1.0206 H         1 <0>         0.1397
     36 H10        -0.7823   -2.4502    0.7504 H         1 <0>         0.1461
     37 H11        -3.2790   -2.1799    0.8223 H         1 <0>         0.1323
     38 H12        -2.3309   -4.4102   -1.0312 H         1 <0>         0.0706
     39 H13        -2.1610   -4.4283    0.7405 H         1 <0>         0.0740
     40 H14        -3.6905   -8.8576   -0.2758 H         1 <0>         0.1275
     41 H15        -4.5444  -11.1590   -0.3475 H         1 <0>         0.1338
     42 H16        -6.9503  -11.5934   -0.0627 H         1 <0>         0.1348
     43 H17        -8.5092   -9.7266    0.2954 H         1 <0>         0.1321
     44 H18        -8.2339   -6.9283    1.3790 H         1 <0>         0.1054
     45 H19        -6.0538   -4.3463   -1.0790 H         1 <0>         0.0744
     46 H20        -7.3202   -5.4552   -1.6564 H         1 <0>         0.0965
     47 H21        -8.0638   -3.7909    0.6958 H         1 <0>         0.0807
     48 H22        -7.7990   -2.8923   -0.8163 H         1 <0>         0.0610
     49 H23       -10.1561   -3.5875   -0.6256 H         1 <0>         0.0645
     50 H24        -9.3697   -4.4136   -1.9880 H         1 <0>         0.0611
     51 H25        -9.7860   -5.5939    0.7921 H         1 <0>         0.0665
     52 H26       -10.7578   -5.9756   -0.6476 H         1 <0>         0.0666
     53 H27        -8.2232   -6.4089   -1.6170 H         1 <0>         0.0854
     54 H28        -9.2487   -7.6806   -0.9119 H         1 <0>         0.0717
     55 H29        -6.9639   -6.7621    2.7893 H         1 <0>         0.0508
     56 H30        -5.2647   -6.2601    2.6187 H         1 <0>         0.0382
     57 H31        -6.3743   -5.3132    3.6387 H         1 <0>         0.0923
     58 H32        -3.0582   -2.3193   -2.0692 H         1 <0>         0.3893
     59 H33        -1.8465   -0.1403   -0.7162 H         1 <0>         0.4333
@<TRIPOS>BOND
     1    1    2 1
     2    1   27 1
     3    1   28 1
     4    1   29 1
     5    2    3 1
     6    2    4 1
     7    2   30 1
     8    3   31 1
     9    3   32 1
    10    3   33 1
    11    4    5 1
    12    4   34 1
    13    4   59 1
    14    5    6 1
    15    5   35 1
    16    5   36 1
    17    6    7 1
    18    6   26 1
    19    6   37 1
    20    7    8 1
    21    7   38 1
    22    7   39 1
    23    8    9 1
    24    9   10 2
    25   10   18 1
    26   10   11 1
    27   11   16 ar
    28   11   12 ar
    29   12   13 ar
    30   12   40 1
    31   13   14 ar
    32   13   41 1
    33   14   15 ar
    34   14   42 1
    35   15   16 ar
    36   15   43 1
    37   16   17 1
    38   17   23 1
    39   17   18 1
    40   17   44 1
    41   18   19 1
    42   18   24 1
    43   19   20 1
    44   19   45 1
    45   19   46 1
    46   20   21 1
    47   20   47 1
    48   20   48 1
    49   21   22 1
    50   21   49 1
    51   21   50 1
    52   22   23 1
    53   22   51 1
    54   22   52 1
    55   23   53 1
    56   23   54 1
    57   24   25 1
    58   25   55 1
    59   25   56 1
    60   25   57 1
    61   26   58 1
@<TRIPOS>MOLECULE
CHEMBL320696
   59    61     0     0     0
SMALL
USER_CHARGES

@<TRIPOS>ATOM
      1 C1          0.4470    0.8313    0.8775 C.3       1 <0>        -0.1850
      2 C2          0.3208   -0.6933    0.8945 C.3       1 <0>         0.0240
      3 C3          0.8381   -1.2331    2.2294 C.3       1 <0>        -0.1867
      4 N1         -1.0893   -1.0698    0.7276 N.4       1 <0>        -0.5025
      5 C4         -1.1970   -2.5312    0.6239 C.3       1 <0>        -0.0438
      6 C5         -2.6656   -2.9233    0.4500 C.3       1 <0>         0.0877
      7 C6         -2.7919   -4.4480    0.4671 C.3       1 <0>         0.0420
      8 O1         -4.1730   -4.8122    0.4218 O.3       1 <0>        -0.2179
      9 N2         -4.4008   -6.2097    0.4333 N.2       1 <0>        -0.3069
     10 C7         -5.6095   -6.6681    0.3957 C.2       1 <0>         0.1724
     11 C8         -6.0446   -8.0926    0.4066 C.ar      1 <0>        -0.0796
     12 C9         -5.3661   -9.2544    0.0366 C.ar      1 <0>        -0.0698
     13 C10        -5.9863  -10.4812    0.1428 C.ar      1 <0>        -0.1217
     14 C11        -7.2834  -10.5627    0.6179 C.ar      1 <0>        -0.0871
     15 C12        -7.9652   -9.4176    0.9845 C.ar      1 <0>        -0.1062
     16 C13        -7.3617   -8.1799    0.8810 C.ar      1 <0>        -0.0546
     17 C14        -7.8454   -6.7958    1.1742 C.3       1 <0>        -0.0803
     18 C15        -6.8920   -5.8811    0.3377 C.3       1 <0>         0.1280
     19 C16        -6.8693   -4.5698    1.1270 C.3       1 <0>        -0.1100
     20 C17        -7.6178   -3.5167    0.3000 C.3       1 <0>        -0.1017
     21 C18        -9.0546   -4.0387   -0.0260 C.3       1 <0>        -0.1207
     22 C19        -9.5529   -4.9617    1.0626 C.3       1 <0>        -0.1158
     23 C20        -9.2279   -6.4250    0.7809 C.3       1 <0>        -0.1118
     24 O2         -7.3509   -5.7021   -1.0037 O.3       1 <0>        -0.3315
     25 C21        -7.4884   -6.9201   -1.7383 C.3       1 <0>         0.0107
     26 O3         -3.1489   -2.4192   -0.7967 O.3       1 <0>        -0.5432
     27 H1          1.4933    1.1107    1.0014 H         1 <0>         0.1080
     28 H2          0.0784    1.2158   -0.0735 H         1 <0>         0.0829
     29 H3         -0.1408    1.2537    1.6925 H         1 <0>         0.0826
     30 H4          0.9085   -1.1157    0.0795 H         1 <0>         0.1392
     31 H5          0.7482   -2.3193    2.2415 H         1 <0>         0.0806
     32 H6          1.8844   -0.9537    2.3533 H         1 <0>         0.1077
     33 H7          0.2504   -0.8107    3.0444 H         1 <0>         0.0832
     34 H8         -1.6196   -0.7492    1.5239 H         1 <0>         0.4278
     35 H9         -0.6242   -2.8776   -0.2363 H         1 <0>         0.1399
     36 H10        -0.8034   -2.9898    1.5310 H         1 <0>         0.1466
     37 H11        -3.2534   -2.5010    1.2651 H         1 <0>         0.1315
     38 H12        -2.2777   -4.8648   -0.3989 H         1 <0>         0.0716
     39 H13        -2.3426   -4.8396    1.3797 H         1 <0>         0.0758
     40 H14        -4.3535   -9.1925   -0.3339 H         1 <0>         0.1272
     41 H15        -5.4596  -11.3789   -0.1452 H         1 <0>         0.1344
     42 H16        -7.7654  -11.5255    0.7023 H         1 <0>         0.1346
     43 H17        -8.9772   -9.4914    1.3542 H         1 <0>         0.1314
     44 H18        -7.6956   -6.5739    2.2308 H         1 <0>         0.0992
     45 H19        -7.3663   -4.7076    2.0872 H         1 <0>         0.0825
     46 H20        -5.8389   -4.2515    1.2854 H         1 <0>         0.0820
     47 H21        -7.6881   -2.5899    0.8695 H         1 <0>         0.0550
     48 H22        -7.0782   -3.3329   -0.6290 H         1 <0>         0.0680
     49 H23        -9.7328   -3.1899   -0.1143 H         1 <0>         0.0557
     50 H24        -9.0333   -4.5793   -0.9722 H         1 <0>         0.0813
     51 H25        -9.0947   -4.6705    2.0078 H         1 <0>         0.0623
     52 H26       -10.6339   -4.8518    1.1496 H         1 <0>         0.0649
     53 H27        -9.3548   -6.6238   -0.2833 H         1 <0>         0.0752
     54 H28        -9.9292   -7.0468    1.3372 H         1 <0>         0.0650
     55 H29        -6.5100   -7.3860   -1.8558 H         1 <0>         0.0433
     56 H30        -8.1507   -7.5971   -1.1987 H         1 <0>         0.0581
     57 H31        -7.9094   -6.7063   -2.7208 H         1 <0>         0.0907
     58 H32        -2.6710   -2.7537   -1.5680 H         1 <0>         0.3901
     59 H33        -1.4536   -0.6453   -0.1121 H         1 <0>         0.4334
@<TRIPOS>BOND
     1    1    2 1
     2    1   27 1
     3    1   28 1
     4    1   29 1
     5    2    3 1
     6    2    4 1
     7    2   30 1
     8    3   31 1
     9    3   32 1
    10    3   33 1
    11    4    5 1
    12    4   34 1
    13    4   59 1
    14    5    6 1
    15    5   35 1
    16    5   36 1
    17    6    7 1
    18    6   26 1
    19    6   37 1
    20    7    8 1
    21    7   38 1
    22    7   39 1
    23    8    9 1
    24    9   10 2
    25   10   18 1
    26   10   11 1
    27   11   16 ar
    28   11   12 ar
    29   12   13 ar
    30   12   40 1
    31   13   14 ar
    32   13   41 1
    33   14   15 ar
    34   14   42 1
    35   15   16 ar
    36   15   43 1
    37   16   17 1
    38   17   23 1
    39   17   18 1
    40   17   44 1
    41   18   19 1
    42   18   24 1
    43   19   20 1
    44   19   45 1
    45   19   46 1
    46   20   21 1
    47   20   47 1
    48   20   48 1
    49   21   22 1
    50   21   49 1
    51   21   50 1
    52   22   23 1
    53   22   51 1
    54   22   52 1
    55   23   53 1
    56   23   54 1
    57   24   25 1
    58   25   55 1
    59   25   56 1
    60   25   57 1
    61   26   58 1
@<TRIPOS>MOLECULE
CHEMBL320696
   59    61     0     0     0
SMALL
USER_CHARGES

@<TRIPOS>ATOM
      1 C1          1.1785    0.1309    0.4969 C.3       1 <0>        -0.1850
      2 C2          0.9234   -1.3721    0.3665 C.3       1 <0>         0.0238
      3 C3          1.5585   -2.1019    1.5517 C.3       1 <0>        -0.1864
      4 N1         -0.5238   -1.6239    0.3548 N.4       1 <0>        -0.5020
      5 C4         -0.7705   -3.0512    0.1098 C.3       1 <0>        -0.0442
      6 C5         -2.2778   -3.3135    0.0976 C.3       1 <0>         0.0876
      7 C6         -2.5347   -4.8001   -0.1576 C.3       1 <0>         0.0421
      8 O1         -3.9400   -5.0256   -0.2848 O.3       1 <0>        -0.2179
      9 N2         -4.2870   -6.3774   -0.5242 N.2       1 <0>        -0.3071
     10 C7         -5.5290   -6.7121   -0.6584 C.2       1 <0>         0.1722
     11 C8         -6.0846   -8.0718   -0.9060 C.ar      1 <0>        -0.0796
     12 C9         -5.5520   -9.3345   -0.6432 C.ar      1 <0>        -0.0698
     13 C10        -6.2631  -10.4680   -0.9759 C.ar      1 <0>        -0.1217
     14 C11        -7.5070  -10.3557   -1.5716 C.ar      1 <0>        -0.0870
     15 C12        -8.0451   -9.1095   -1.8324 C.ar      1 <0>        -0.1064
     16 C13        -7.3496   -7.9632   -1.5024 C.ar      1 <0>        -0.0544
     17 C14        -7.6778   -6.5111   -1.6403 C.3       1 <0>        -0.0798
     18 C15        -6.7371   -5.8155   -0.5928 C.3       1 <0>         0.1279
     19 C16        -6.5224   -4.4162   -1.1754 C.3       1 <0>        -0.1096
     20 C17        -7.2531   -3.4181   -0.2686 C.3       1 <0>        -0.1018
     21 C18        -8.7554   -3.8325   -0.1456 C.3       1 <0>        -0.1201
     22 C19        -9.2236   -4.5407   -1.3964 C.3       1 <0>        -0.1155
     23 C20        -9.0546   -6.0570   -1.3230 C.3       1 <0>        -0.1126
     24 O2         -7.3074   -5.7793    0.7169 O.3       1 <0>        -0.3310
     25 C21        -7.6187   -7.0676    1.2512 C.3       1 <0>         0.0108
     26 O3         -2.8358   -2.9435    1.3600 O.3       1 <0>        -0.5436
     27 H1          2.2523    0.3177    0.5056 H         1 <0>         0.1080
     28 H2          0.7260    0.6508   -0.3475 H         1 <0>         0.0828
     29 H3          0.7388    0.4948    1.4256 H         1 <0>         0.0827
     30 H4          1.3630   -1.7360   -0.5622 H         1 <0>         0.1396
     31 H5          1.3768   -3.1726    1.4588 H         1 <0>         0.0800
     32 H6          2.6324   -1.9150    1.5604 H         1 <0>         0.1077
     33 H7          1.1189   -1.7380    2.4804 H         1 <0>         0.0832
     34 H8         -0.9179   -1.3627    1.2462 H         1 <0>         0.4310
     35 H9         -0.3448   -3.3334   -0.8532 H         1 <0>         0.1463
     36 H10        -0.3054   -3.6411    0.8996 H         1 <0>         0.1403
     37 H11        -2.7429   -2.7236   -0.6922 H         1 <0>         0.1326
     38 H12        -2.0334   -5.1028   -1.0769 H         1 <0>         0.0762
     39 H13        -2.1470   -5.3843    0.6770 H         1 <0>         0.0711
     40 H14        -4.5811   -9.4241   -0.1788 H         1 <0>         0.1272
     41 H15        -5.8488  -11.4443   -0.7717 H         1 <0>         0.1344
     42 H16        -8.0597  -11.2456   -1.8343 H         1 <0>         0.1347
     43 H17        -9.0164   -9.0318   -2.2982 H         1 <0>         0.1314
     44 H18        -7.4029   -6.1692   -2.6381 H         1 <0>         0.0996
     45 H19        -5.4576   -4.1844   -1.1977 H         1 <0>         0.0820
     46 H20        -6.9331   -4.3686   -2.1839 H         1 <0>         0.0826
     47 H21        -6.7932   -3.4204    0.7196 H         1 <0>         0.0679
     48 H22        -7.1856   -2.4189   -0.6989 H         1 <0>         0.0551
     49 H23        -8.8746   -4.4984    0.7091 H         1 <0>         0.0811
     50 H24        -9.3618   -2.9401    0.0092 H         1 <0>         0.0561
     51 H25       -10.2771   -4.3115   -1.5569 H         1 <0>         0.0651
     52 H26        -8.6514   -4.1689   -2.2463 H         1 <0>         0.0612
     53 H27        -9.7483   -6.5281   -2.0193 H         1 <0>         0.0662
     54 H28        -9.3051   -6.3775   -0.3117 H         1 <0>         0.0732
     55 H29        -8.2574   -7.6064    0.5513 H         1 <0>         0.0585
     56 H30        -6.6972   -7.6283    1.4077 H         1 <0>         0.0430
     57 H31        -8.1389   -6.9507    2.2019 H         1 <0>         0.0906
     58 H32        -2.4677   -3.4297    2.1105 H         1 <0>         0.3895
     59 H33        -0.9543   -1.0779   -0.3763 H         1 <0>         0.4301
@<TRIPOS>BOND
     1    1    2 1
     2    1   27 1
     3    1   28 1
     4    1   29 1
     5    2    3 1
     6    2    4 1
     7    2   30 1
     8    3   31 1
     9    3   32 1
    10    3   33 1
    11    4    5 1
    12    4   34 1
    13    4   59 1
    14    5    6 1
    15    5   35 1
    16    5   36 1
    17    6    7 1
    18    6   26 1
    19    6   37 1
    20    7    8 1
    21    7   38 1
    22    7   39 1
    23    8    9 1
    24    9   10 2
    25   10   18 1
    26   10   11 1
    27   11   16 ar
    28   11   12 ar
    29   12   13 ar
    30   12   40 1
    31   13   14 ar
    32   13   41 1
    33   14   15 ar
    34   14   42 1
    35   15   16 ar
    36   15   43 1
    37   16   17 1
    38   17   23 1
    39   17   18 1
    40   17   44 1
    41   18   19 1
    42   18   24 1
    43   19   20 1
    44   19   45 1
    45   19   46 1
    46   20   21 1
    47   20   47 1
    48   20   48 1
    49   21   22 1
    50   21   49 1
    51   21   50 1
    52   22   23 1
    53   22   51 1
    54   22   52 1
    55   23   53 1
    56   23   54 1
    57   24   25 1
    58   25   55 1
    59   25   56 1
    60   25   57 1
    61   26   58 1
@<TRIPOS>MOLECULE
CHEMBL320696
   59    61     0     0     0
SMALL
USER_CHARGES

@<TRIPOS>ATOM
      1 C1          0.8706    0.5950   -1.0159 C.3       1 <0>        -0.1850
      2 C2          0.6938   -0.9245   -0.9878 C.3       1 <0>         0.0238
      3 C3          1.5138   -1.5122    0.1625 C.3       1 <0>        -0.1862
      4 N1         -0.7257   -1.2487   -0.7928 N.4       1 <0>        -0.5019
      5 C4         -0.9130   -2.7028   -0.8852 C.3       1 <0>        -0.0440
      6 C5         -2.3914   -3.0405   -0.6821 C.3       1 <0>         0.0885
      7 C6         -2.5865   -4.5549   -0.7784 C.3       1 <0>         0.0438
      8 O1         -3.9803   -4.8613   -0.7052 O.3       1 <0>        -0.2118
      9 N2         -4.2710   -6.2448   -0.7855 N.2       1 <0>        -0.3145
     10 C7         -5.4972   -6.6522   -0.7310 C.2       1 <0>         0.1684
     11 C8         -5.9587   -8.0454   -0.9008 C.ar      1 <0>        -0.0816
     12 C9         -5.2248   -9.2138   -1.1451 C.ar      1 <0>        -0.0665
     13 C10        -5.8727  -10.4234   -1.2680 C.ar      1 <0>        -0.1245
     14 C11        -7.2500  -10.4884   -1.1513 C.ar      1 <0>        -0.0846
     15 C12        -7.9818   -9.3405   -0.9116 C.ar      1 <0>        -0.1077
     16 C13        -7.3441   -8.1201   -0.7850 C.ar      1 <0>        -0.0540
     17 C14        -7.9062   -6.7426   -0.5233 C.3       1 <0>        -0.0766
     18 C15        -6.7097   -5.7890   -0.4763 C.3       1 <0>         0.1416
     19 C16        -6.6034   -5.1478    0.9071 C.3       1 <0>        -0.1111
     20 C17        -7.5725   -3.9691    1.0014 C.3       1 <0>        -0.1129
     21 C18        -8.8526   -4.4071    1.7109 C.3       1 <0>        -0.1230
     22 C19        -9.5411   -5.5215    0.9240 C.3       1 <0>        -0.1205
     23 C20        -8.6234   -6.7323    0.8286 C.3       1 <0>        -0.1228
     24 O2         -6.8320   -4.7914   -1.4921 O.3       1 <0>        -0.3513
     25 C21        -6.8520   -5.3151   -2.8216 C.3       1 <0>         0.0228
     26 O3         -2.8109   -2.5872    0.6065 O.3       1 <0>        -0.5437
     27 H1          1.9238    0.8356   -1.1606 H         1 <0>         0.1079
     28 H2          0.2864    1.0137   -1.8353 H         1 <0>         0.0829
     29 H3          0.5276    1.0182   -0.0718 H         1 <0>         0.0827
     30 H4          1.0368   -1.3477   -1.9319 H         1 <0>         0.1395
     31 H5          1.3878   -2.5947    0.1825 H         1 <0>         0.0799
     32 H6          2.5670   -1.2716    0.0178 H         1 <0>         0.1076
     33 H7          1.1708   -1.0889    1.1066 H         1 <0>         0.0831
     34 H8         -1.0219   -0.9286    0.1171 H         1 <0>         0.4309
     35 H9         -0.5930   -3.0486   -1.8682 H         1 <0>         0.1459
     36 H10        -0.3187   -3.1953   -0.1156 H         1 <0>         0.1400
     37 H11        -2.9856   -2.5479   -1.4518 H         1 <0>         0.1333
     38 H12        -2.1850   -4.9135   -1.7263 H         1 <0>         0.0746
     39 H13        -2.0638   -5.0417    0.0449 H         1 <0>         0.0696
     40 H14        -4.1498   -9.1660   -1.2375 H         1 <0>         0.1275
     41 H15        -5.3047  -11.3224   -1.4561 H         1 <0>         0.1338
     42 H16        -7.7545  -11.4384   -1.2481 H         1 <0>         0.1348
     43 H17        -9.0567   -9.3970   -0.8227 H         1 <0>         0.1322
     44 H18        -8.5968   -6.4602   -1.3180 H         1 <0>         0.1058
     45 H19        -6.8539   -5.8856    1.6694 H         1 <0>         0.0971
     46 H20        -5.5848   -4.7938    1.0659 H         1 <0>         0.0702
     47 H21        -7.1055   -3.1601    1.5631 H         1 <0>         0.0614
     48 H22        -7.8159   -3.6190   -0.0018 H         1 <0>         0.0814
     49 H23        -8.6060   -4.7695    2.7089 H         1 <0>         0.0611
     50 H24        -9.5275   -3.5554    1.7958 H         1 <0>         0.0648
     51 H25       -10.4653   -5.8032    1.4285 H         1 <0>         0.0674
     52 H26        -9.7721   -5.1661   -0.0802 H         1 <0>         0.0660
     53 H27        -9.2146   -7.6420    0.9325 H         1 <0>         0.0711
     54 H28        -7.8861   -6.6859    1.6300 H         1 <0>         0.0851
     55 H29        -5.9667   -5.9302   -2.9831 H         1 <0>         0.0391
     56 H30        -7.7465   -5.9224   -2.9595 H         1 <0>         0.0494
     57 H31        -6.8578   -4.4920   -3.5362 H         1 <0>         0.0908
     58 H32        -2.3238   -2.9849    1.3411 H         1 <0>         0.3882
     59 H33        -1.2758   -0.7928   -1.5052 H         1 <0>         0.4303
@<TRIPOS>BOND
     1    1    2 1
     2    1   27 1
     3    1   28 1
     4    1   29 1
     5    2    3 1
     6    2    4 1
     7    2   30 1
     8    3   31 1
     9    3   32 1
    10    3   33 1
    11    4    5 1
    12    4   34 1
    13    4   59 1
    14    5    6 1
    15    5   35 1
    16    5   36 1
    17    6    7 1
    18    6   26 1
    19    6   37 1
    20    7    8 1
    21    7   38 1
    22    7   39 1
    23    8    9 1
    24    9   10 2
    25   10   18 1
    26   10   11 1
    27   11   16 ar
    28   11   12 ar
    29   12   13 ar
    30   12   40 1
    31   13   14 ar
    32   13   41 1
    33   14   15 ar
    34   14   42 1
    35   15   16 ar
    36   15   43 1
    37   16   17 1
    38   17   23 1
    39   17   18 1
    40   17   44 1
    41   18   19 1
    42   18   24 1
    43   19   20 1
    44   19   45 1
    45   19   46 1
    46   20   21 1
    47   20   47 1
    48   20   48 1
    49   21   22 1
    50   21   49 1
    51   21   50 1
    52   22   23 1
    53   22   51 1
    54   22   52 1
    55   23   53 1
    56   23   54 1
    57   24   25 1
    58   25   55 1
    59   25   56 1
    60   25   57 1
    61   26   58 1
@<TRIPOS>MOLECULE
CHEMBL320696
   59    61     0     0     0
SMALL
USER_CHARGES

@<TRIPOS>ATOM
      1 C1          0.0253    1.4807    0.0682 C.3       1 <0>        -0.1850
      2 C2          0.0368   -0.0492    0.0502 C.3       1 <0>         0.0238
      3 C3          0.7729   -0.5683    1.2870 C.3       1 <0>        -0.1863
      4 N1         -1.3444   -0.5493    0.0565 N.4       1 <0>        -0.5019
      5 C4         -1.3362   -2.0118   -0.0814 C.3       1 <0>        -0.0441
      6 C5         -2.7748   -2.5327   -0.0748 C.3       1 <0>         0.0882
      7 C6         -2.7663   -4.0560   -0.2185 C.3       1 <0>         0.0439
      8 O1         -4.1093   -4.5315   -0.3293 O.3       1 <0>        -0.2133
      9 N2         -4.2131   -5.9369   -0.4674 N.2       1 <0>        -0.3133
     10 C7         -5.3762   -6.4917   -0.5769 C.2       1 <0>         0.1685
     11 C8         -5.6358   -7.9263   -0.8163 C.ar      1 <0>        -0.0814
     12 C9         -4.7374   -8.9891   -0.9802 C.ar      1 <0>        -0.0665
     13 C10        -5.2092  -10.2651   -1.1968 C.ar      1 <0>        -0.1244
     14 C11        -6.5713  -10.5017   -1.2528 C.ar      1 <0>        -0.0847
     15 C12        -7.4646   -9.4592   -1.0919 C.ar      1 <0>        -0.1077
     16 C13        -7.0048   -8.1735   -0.8742 C.ar      1 <0>        -0.0548
     17 C14        -7.7622   -6.8823   -0.6714 C.3       1 <0>        -0.0772
     18 C15        -6.7088   -5.7888   -0.4763 C.3       1 <0>         0.1405
     19 C16        -6.8278   -4.7490   -1.5903 C.3       1 <0>        -0.1127
     20 C17        -7.9449   -3.7615   -1.2523 C.3       1 <0>        -0.1135
     21 C18        -9.2237   -4.1546   -1.9899 C.3       1 <0>        -0.1227
     22 C19        -9.6794   -5.5473   -1.5575 C.3       1 <0>        -0.1204
     23 C20        -8.6031   -6.5827   -1.9144 C.3       1 <0>        -0.1213
     24 O2         -6.8534   -5.1788    0.8078 O.3       1 <0>        -0.3491
     25 C21        -6.6707   -6.0787    1.9027 C.3       1 <0>         0.0220
     26 O3         -3.4057   -2.1739    1.1561 O.3       1 <0>        -0.5424
     27 H1          1.0502    1.8518    0.0635 H         1 <0>         0.1079
     28 H2         -0.4991    1.8505   -0.8129 H         1 <0>         0.0829
     29 H3         -0.4834    1.8296    0.9669 H         1 <0>         0.0827
     30 H4          0.5455   -0.3981   -0.8485 H         1 <0>         0.1396
     31 H5          0.7811   -1.6582    1.2741 H         1 <0>         0.0799
     32 H6          1.7977   -0.1971    1.2823 H         1 <0>         0.1076
     33 H7          0.2642   -0.2193    2.1857 H         1 <0>         0.0831
     34 H8         -1.7899   -0.2960    0.9257 H         1 <0>         0.4309
     35 H9         -0.8550   -2.2855   -1.0203 H         1 <0>         0.1461
     36 H10        -0.7865   -2.4522    0.7505 H         1 <0>         0.1399
     37 H11        -3.3245   -2.0924   -0.9067 H         1 <0>         0.1323
     38 H12        -2.2076   -4.3335   -1.1124 H         1 <0>         0.0750
     39 H13        -2.2945   -4.5009    0.6576 H         1 <0>         0.0695
     40 H14        -3.6736   -8.8077   -0.9363 H         1 <0>         0.1275
     41 H15        -4.5146  -11.0824   -1.3229 H         1 <0>         0.1338
     42 H16        -6.9375  -11.5034   -1.4230 H         1 <0>         0.1348
     43 H17        -8.5267   -9.6499   -1.1360 H         1 <0>         0.1321
     44 H18        -8.4027   -6.9554    0.2075 H         1 <0>         0.1057
     45 H19        -5.8847   -4.2110   -1.6870 H         1 <0>         0.0703
     46 H20        -7.0579   -5.2494   -2.5309 H         1 <0>         0.0970
     47 H21        -8.1277   -3.7751   -0.1778 H         1 <0>         0.0822
     48 H22        -7.6457   -2.7582   -1.5553 H         1 <0>         0.0598
     49 H23       -10.0076   -3.4320   -1.7632 H         1 <0>         0.0649
     50 H24        -9.0355   -4.1538   -3.0636 H         1 <0>         0.0608
     51 H25        -9.8507   -5.5542   -0.4811 H         1 <0>         0.0669
     52 H26       -10.6062   -5.8010   -2.0720 H         1 <0>         0.0668
     53 H27        -7.9597   -6.1897   -2.7016 H         1 <0>         0.0851
     54 H28        -9.0793   -7.5002   -2.2601 H         1 <0>         0.0718
     55 H29        -7.3484   -6.9254    1.7941 H         1 <0>         0.0500
     56 H30        -5.6410   -6.4361    1.9113 H         1 <0>         0.0379
     57 H31        -6.8832   -5.5608    2.8380 H         1 <0>         0.0925
     58 H32        -2.9689   -2.5321    1.9410 H         1 <0>         0.3884
     59 H33        -1.8533   -0.1417   -0.7135 H         1 <0>         0.4302
@<TRIPOS>BOND
     1    1    2 1
     2    1   27 1
     3    1   28 1
     4    1   29 1
     5    2    3 1
     6    2    4 1
     7    2   30 1
     8    3   31 1
     9    3   32 1
    10    3   33 1
    11    4    5 1
    12    4   34 1
    13    4   59 1
    14    5    6 1
    15    5   35 1
    16    5   36 1
    17    6    7 1
    18    6   26 1
    19    6   37 1
    20    7    8 1
    21    7   38 1
    22    7   39 1
    23    8    9 1
    24    9   10 2
    25   10   18 1
    26   10   11 1
    27   11   16 ar
    28   11   12 ar
    29   12   13 ar
    30   12   40 1
    31   13   14 ar
    32   13   41 1
    33   14   15 ar
    34   14   42 1
    35   15   16 ar
    36   15   43 1
    37   16   17 1
    38   17   23 1
    39   17   18 1
    40   17   44 1
    41   18   19 1
    42   18   24 1
    43   19   20 1
    44   19   45 1
    45   19   46 1
    46   20   21 1
    47   20   47 1
    48   20   48 1
    49   21   22 1
    50   21   49 1
    51   21   50 1
    52   22   23 1
    53   22   51 1
    54   22   52 1
    55   23   53 1
    56   23   54 1
    57   24   25 1
    58   25   55 1
    59   25   56 1
    60   25   57 1
    61   26   58 1
@<TRIPOS>MOLECULE
CHEMBL320696
   59    61     0     0     0
SMALL
USER_CHARGES

@<TRIPOS>ATOM
      1 C1          0.4132    0.7404    0.8837 C.3       1 <0>        -0.1850
      2 C2          0.2686   -0.7828    0.8792 C.3       1 <0>         0.0238
      3 C3          0.7898   -1.3485    2.2018 C.3       1 <0>        -0.1863
      4 N1         -1.1472   -1.1397    0.7180 N.4       1 <0>        -0.5020
      5 C4         -1.2734   -2.5980    0.5935 C.3       1 <0>        -0.0439
      6 C5         -2.7480   -2.9698    0.4256 C.3       1 <0>         0.0875
      7 C6         -2.8795   -4.4886    0.2960 C.3       1 <0>         0.0423
      8 O1         -4.2406   -4.8273    0.0230 O.3       1 <0>        -0.2181
      9 N2         -4.4715   -6.2175   -0.1158 N.2       1 <0>        -0.3070
     10 C7         -5.6635   -6.6534   -0.3645 C.2       1 <0>         0.1726
     11 C8         -6.0994   -8.0673   -0.5359 C.ar      1 <0>        -0.0798
     12 C9         -5.3778   -9.2043   -0.9015 C.ar      1 <0>        -0.0699
     13 C10        -6.0101  -10.4263   -0.9888 C.ar      1 <0>        -0.1218
     14 C11        -7.3623  -10.5279   -0.7128 C.ar      1 <0>        -0.0870
     15 C12        -8.0866   -9.4072   -0.3525 C.ar      1 <0>        -0.1063
     16 C13        -7.4713   -8.1741   -0.2641 C.ar      1 <0>        -0.0544
     17 C14        -7.9884   -6.8121    0.0723 C.3       1 <0>        -0.0802
     18 C15        -6.9222   -5.8455   -0.5390 C.3       1 <0>         0.1272
     19 C16        -7.0097   -4.6046    0.3528 C.3       1 <0>        -0.1109
     20 C17        -7.6286   -3.4756   -0.4811 C.3       1 <0>        -0.1009
     21 C18        -9.0050   -3.9475   -1.0522 C.3       1 <0>        -0.1209
     22 C19        -9.6572   -4.9501   -0.1277 C.3       1 <0>        -0.1159
     23 C20        -9.2989   -6.3896   -0.4822 C.3       1 <0>        -0.1116
     24 O2         -7.1828   -5.5491   -1.9125 O.3       1 <0>        -0.3327
     25 C21        -7.2164   -6.6998   -2.7591 C.3       1 <0>         0.0105
     26 O3         -3.4846   -2.5235    1.5659 O.3       1 <0>        -0.5447
     27 H1          1.4638    1.0053    1.0034 H         1 <0>         0.1080
     28 H2          0.0419    1.1434   -0.0585 H         1 <0>         0.0829
     29 H3         -0.1630    1.1576    1.7096 H         1 <0>         0.0827
     30 H4          0.8448   -1.2000    0.0534 H         1 <0>         0.1396
     31 H5          0.6868   -2.4336    2.1985 H         1 <0>         0.0799
     32 H6          1.8403   -1.0836    2.3214 H         1 <0>         0.1077
     33 H7          0.2136   -0.9313    3.0276 H         1 <0>         0.0831
     34 H8         -1.6673   -0.8246    1.5231 H         1 <0>         0.4308
     35 H9         -0.7116   -2.9384   -0.2763 H         1 <0>         0.1463
     36 H10        -0.8784   -3.0747    1.4906 H         1 <0>         0.1403
     37 H11        -3.1430   -2.4930   -0.4715 H         1 <0>         0.1335
     38 H12        -2.2471   -4.8398   -0.5194 H         1 <0>         0.0761
     39 H13        -2.5672   -4.9611    1.2273 H         1 <0>         0.0713
     40 H14        -4.3223   -9.1268   -1.1167 H         1 <0>         0.1272
     41 H15        -5.4499  -11.3048   -1.2730 H         1 <0>         0.1344
     42 H16        -7.8540  -11.4871   -0.7796 H         1 <0>         0.1346
     43 H17        -9.1416   -9.4964   -0.1390 H         1 <0>         0.1314
     44 H18        -7.9916   -6.6808    1.1544 H         1 <0>         0.0995
     45 H19        -7.6400   -4.8141    1.2170 H         1 <0>         0.0823
     46 H20        -6.0120   -4.3157    0.6834 H         1 <0>         0.0870
     47 H21        -7.7777   -2.5982    0.1484 H         1 <0>         0.0562
     48 H22        -6.9605   -3.2234   -1.3045 H         1 <0>         0.0647
     49 H23        -9.6611   -3.0844   -1.1650 H         1 <0>         0.0555
     50 H24        -8.8492   -4.4081   -2.0277 H         1 <0>         0.0809
     51 H25        -9.3389   -4.7451    0.8944 H         1 <0>         0.0628
     52 H26       -10.7391   -4.8319   -0.1874 H         1 <0>         0.0648
     53 H27        -9.2719   -6.4977   -1.5665 H         1 <0>         0.0750
     54 H28       -10.0747   -7.0451   -0.0863 H         1 <0>         0.0650
     55 H29        -6.2326   -7.1688   -2.7741 H         1 <0>         0.0434
     56 H30        -7.9513   -7.4094   -2.3788 H         1 <0>         0.0583
     57 H31        -7.4911   -6.3991   -3.7701 H         1 <0>         0.0906
     58 H32        -3.1868   -2.9080    2.4017 H         1 <0>         0.3892
     59 H33        -1.5129   -0.6984   -0.1125 H         1 <0>         0.4303
@<TRIPOS>BOND
     1    1    2 1
     2    1   27 1
     3    1   28 1
     4    1   29 1
     5    2    3 1
     6    2    4 1
     7    2   30 1
     8    3   31 1
     9    3   32 1
    10    3   33 1
    11    4    5 1
    12    4   34 1
    13    4   59 1
    14    5    6 1
    15    5   35 1
    16    5   36 1
    17    6    7 1
    18    6   26 1
    19    6   37 1
    20    7    8 1
    21    7   38 1
    22    7   39 1
    23    8    9 1
    24    9   10 2
    25   10   18 1
    26   10   11 1
    27   11   16 ar
    28   11   12 ar
    29   12   13 ar
    30   12   40 1
    31   13   14 ar
    32   13   41 1
    33   14   15 ar
    34   14   42 1
    35   15   16 ar
    36   15   43 1
    37   16   17 1
    38   17   23 1
    39   17   18 1
    40   17   44 1
    41   18   19 1
    42   18   24 1
    43   19   20 1
    44   19   45 1
    45   19   46 1
    46   20   21 1
    47   20   47 1
    48   20   48 1
    49   21   22 1
    50   21   49 1
    51   21   50 1
    52   22   23 1
    53   22   51 1
    54   22   52 1
    55   23   53 1
    56   23   54 1
    57   24   25 1
    58   25   55 1
    59   25   56 1
    60   25   57 1
    61   26   58 1
@<TRIPOS>MOLECULE
CHEMBL1159892
   42    43     0     0     0
SMALL
USER_CHARGES

@<TRIPOS>ATOM
      1 C1         -0.0187    1.5258    0.0104 C.3       1 <0>        -0.1852
      2 C2          0.0021   -0.0041    0.0020 C.3       1 <0>         0.0239
      3 C3          0.7421   -0.5109    1.2415 C.3       1 <0>        -0.1867
      4 N1         -1.3761   -0.5125    0.0124 N.4       1 <0>        -0.5024
      5 C4         -1.3591   -1.9758   -0.1163 C.3       1 <0>        -0.0454
      6 C5         -2.7945   -2.5054   -0.1054 C.3       1 <0>         0.0871
      7 C6         -2.7738   -4.0352   -0.1138 C.3       1 <0>         0.0291
      8 O1         -4.1082   -4.5304    0.0137 O.3       1 <0>        -0.2974
      9 C7         -4.2671   -5.8800    0.0235 C.ar      1 <0>         0.1219
     10 C8         -3.1608   -6.7108   -0.0816 C.ar      1 <0>        -0.2053
     11 C9         -3.3249   -8.0822   -0.0710 C.ar      1 <0>        -0.0850
     12 C10        -4.5905   -8.6274    0.0443 C.ar      1 <0>        -0.1413
     13 C11        -5.6945   -7.8018    0.1487 C.ar      1 <0>        -0.0830
     14 C12        -5.5351   -6.4294    0.1443 C.ar      1 <0>        -0.0718
     15 C13        -6.7383   -5.5300    0.2644 C.3       1 <0>        -0.1125
     16 C14        -8.0801   -6.1858    0.5964 C.3       1 <0>        -0.1764
     17 C15        -7.8190   -5.6484   -0.8121 C.3       1 <0>        -0.1669
     18 O2         -3.4857   -2.0320   -1.2631 O.3       1 <0>        -0.5425
     19 H1          1.0039    1.9031    0.0027 H         1 <0>         0.1082
     20 H2         -0.5459    1.8868   -0.8726 H         1 <0>         0.0831
     21 H3         -0.5289    1.8773    0.9072 H         1 <0>         0.0828
     22 H4          0.5123   -0.3556   -0.8948 H         1 <0>         0.1393
     23 H5          1.7647   -0.1336    1.2338 H         1 <0>         0.1080
     24 H6          0.2319   -0.1594    2.1383 H         1 <0>         0.0835
     25 H7          0.7568   -1.6008    1.2356 H         1 <0>         0.0802
     26 H8         -1.8225   -0.2564    0.8803 H         1 <0>         0.4283
     27 H9         -0.8769   -2.2525   -1.0538 H         1 <0>         0.1399
     28 H10        -0.8062   -2.4075    0.7180 H         1 <0>         0.1466
     29 H11        -3.3047   -2.1538    0.7914 H         1 <0>         0.1339
     30 H12        -2.3435   -4.3876   -1.0513 H         1 <0>         0.0761
     31 H13        -2.1714   -4.3950    0.7203 H         1 <0>         0.0801
     32 H14        -2.1722   -6.2855   -0.1720 H         1 <0>         0.1242
     33 H15        -2.4641   -8.7293   -0.1531 H         1 <0>         0.1285
     34 H16        -4.7168   -9.7000    0.0525 H         1 <0>         0.1300
     35 H17        -6.6819   -8.2300    0.2383 H         1 <0>         0.1347
     36 H18        -6.5457   -4.5399    0.6775 H         1 <0>         0.1134
     37 H19        -8.0927   -7.2678    0.7280 H         1 <0>         0.0995
     38 H20        -8.7707   -5.6272    1.2282 H         1 <0>         0.1006
     39 H21        -8.3378   -4.7362   -1.1069 H         1 <0>         0.0988
     40 H22        -7.6598   -6.3768   -1.6072 H         1 <0>         0.0961
     41 H23        -3.0863   -2.3073   -2.0996 H         1 <0>         0.3902
     42 H24        -1.8879   -0.1129   -0.7598 H         1 <0>         0.4337
@<TRIPOS>BOND
     1    1    2 1
     2    1   19 1
     3    1   20 1
     4    1   21 1
     5    2    3 1
     6    2    4 1
     7    2   22 1
     8    3   23 1
     9    3   24 1
    10    3   25 1
    11    4    5 1
    12    4   26 1
    13    4   42 1
    14    5    6 1
    15    5   27 1
    16    5   28 1
    17    6    7 1
    18    6   18 1
    19    6   29 1
    20    7    8 1
    21    7   30 1
    22    7   31 1
    23    8    9 1
    24    9   14 ar
    25    9   10 ar
    26   10   11 ar
    27   10   32 1
    28   11   12 ar
    29   11   33 1
    30   12   13 ar
    31   12   34 1
    32   13   14 ar
    33   13   35 1
    34   14   15 1
    35   15   17 1
    36   15   16 1
    37   15   36 1
    38   16   17 1
    39   16   37 1
    40   16   38 1
    41   17   39 1
    42   17   40 1
    43   18   41 1
@<TRIPOS>MOLECULE
CHEMBL1159892
   42    43     0     0     0
SMALL
USER_CHARGES

@<TRIPOS>ATOM
      1 C1         -0.0187    1.5258    0.0104 C.3       1 <0>        -0.1852
      2 C2          0.0021   -0.0041    0.0020 C.3       1 <0>         0.0237
      3 C3          0.7421   -0.5109    1.2415 C.3       1 <0>        -0.1864
      4 N1         -1.3761   -0.5125    0.0124 N.4       1 <0>        -0.5019
      5 C4         -1.3591   -1.9758   -0.1163 C.3       1 <0>        -0.0456
      6 C5         -2.7945   -2.5054   -0.1054 C.3       1 <0>         0.0868
      7 C6         -2.7769   -4.0294   -0.2395 C.3       1 <0>         0.0292
      8 O1         -4.1170   -4.5137   -0.3464 O.3       1 <0>        -0.2973
      9 C7         -4.2793   -5.8570   -0.4731 C.ar      1 <0>         0.1219
     10 C8         -3.1716   -6.6925   -0.4883 C.ar      1 <0>        -0.2052
     11 C9         -3.3393   -8.0575   -0.6167 C.ar      1 <0>        -0.0850
     12 C10        -4.6098   -8.5916   -0.7301 C.ar      1 <0>        -0.1412
     13 C11        -5.7150   -7.7613   -0.7157 C.ar      1 <0>        -0.0831
     14 C12        -5.5530   -6.3957   -0.5817 C.ar      1 <0>        -0.0718
     15 C13        -6.7585   -5.4918   -0.5598 C.3       1 <0>        -0.1131
     16 C14        -8.1360   -6.1530   -0.4797 C.3       1 <0>        -0.1758
     17 C15        -7.6735   -5.5045   -1.7860 C.3       1 <0>        -0.1681
     18 O2         -3.4268   -2.1426    1.1237 O.3       1 <0>        -0.5432
     19 H1          1.0039    1.9031    0.0027 H         1 <0>         0.1082
     20 H2         -0.5459    1.8868   -0.8726 H         1 <0>         0.0831
     21 H3         -0.5289    1.8773    0.9072 H         1 <0>         0.0829
     22 H4          0.5123   -0.3556   -0.8948 H         1 <0>         0.1397
     23 H5          1.7647   -0.1336    1.2338 H         1 <0>         0.1080
     24 H6          0.2319   -0.1594    2.1383 H         1 <0>         0.0833
     25 H7          0.7568   -1.6008    1.2356 H         1 <0>         0.0796
     26 H8         -1.8225   -0.2564    0.8803 H         1 <0>         0.4312
     27 H9         -0.8769   -2.2525   -1.0538 H         1 <0>         0.1464
     28 H10        -0.8062   -2.4075    0.7180 H         1 <0>         0.1401
     29 H11        -3.3474   -2.0736   -0.9397 H         1 <0>         0.1353
     30 H12        -2.2171   -4.3091   -1.1320 H         1 <0>         0.0807
     31 H13        -2.3018   -4.4659    0.6390 H         1 <0>         0.0755
     32 H14        -2.1792   -6.2758   -0.4002 H         1 <0>         0.1242
     33 H15        -2.4774   -8.7081   -0.6289 H         1 <0>         0.1285
     34 H16        -4.7388   -9.6592   -0.8304 H         1 <0>         0.1300
     35 H17        -6.7062   -8.1808   -0.8047 H         1 <0>         0.1347
     36 H18        -6.6248   -4.5422   -0.0415 H         1 <0>         0.1148
     37 H19        -8.1702   -7.2418   -0.4428 H         1 <0>         0.0995
     38 H20        -8.9087   -5.6385    0.0916 H         1 <0>         0.1008
     39 H21        -8.1420   -4.5635   -2.0742 H         1 <0>         0.0985
     40 H22        -7.4034   -6.1668   -2.6086 H         1 <0>         0.0960
     41 H23        -2.9873   -2.4932    1.9105 H         1 <0>         0.3895
     42 H24        -1.8879   -0.1129   -0.7598 H         1 <0>         0.4307
@<TRIPOS>BOND
     1    1    2 1
     2    1   19 1
     3    1   20 1
     4    1   21 1
     5    2    3 1
     6    2    4 1
     7    2   22 1
     8    3   23 1
     9    3   24 1
    10    3   25 1
    11    4    5 1
    12    4   26 1
    13    4   42 1
    14    5    6 1
    15    5   27 1
    16    5   28 1
    17    6    7 1
    18    6   18 1
    19    6   29 1
    20    7    8 1
    21    7   30 1
    22    7   31 1
    23    8    9 1
    24    9   14 ar
    25    9   10 ar
    26   10   11 ar
    27   10   32 1
    28   11   12 ar
    29   11   33 1
    30   12   13 ar
    31   12   34 1
    32   13   14 ar
    33   13   35 1
    34   14   15 1
    35   15   17 1
    36   15   16 1
    37   15   36 1
    38   16   17 1
    39   16   37 1
    40   16   38 1
    41   17   39 1
    42   17   40 1
    43   18   41 1
@<TRIPOS>MOLECULE
CHEMBL1082501
   61    65     0     0     0
SMALL
USER_CHARGES

@<TRIPOS>ATOM
      1 C1         -0.0166    1.3740    0.0096 C.ar      1 <0>        -0.1468
      2 C2          1.1714    2.0887    0.0021 C.ar      1 <0>        -0.0825
      3 C3          2.3836    1.4330   -0.0130 C.ar      1 <0>        -0.1380
      4 C4          2.4231    0.0421   -0.0214 C.ar      1 <0>         0.1338
      5 C5          1.2202   -0.6796   -0.0138 C.ar      1 <0>        -0.0923
      6 C6          0.0021   -0.0041    0.0020 C.ar      1 <0>        -0.0606
      7 C7          1.5889   -2.1068   -0.0256 C.ar      1 <0>        -0.1300
      8 C8          2.9901   -2.1563   -0.0395 C.ar      1 <0>         0.1819
      9 N1          3.4726   -0.8597   -0.0368 N.pl3     1 <0>        -0.6121
     10 H1          4.4118   -0.6174   -0.0448 H         1 <0>         0.4227
     11 C9          3.6293   -3.3927   -0.0533 C.ar      1 <0>        -0.1710
     12 C10         2.8884   -4.5554   -0.0536 C.ar      1 <0>        -0.0442
     13 C11         1.5040   -4.5098   -0.0403 C.ar      1 <0>        -0.2455
     14 C12         0.8481   -3.2912   -0.0258 C.ar      1 <0>         0.1790
     15 O1         -0.5096   -3.2469   -0.0123 O.3       1 <0>        -0.2956
     16 C13        -1.1995   -4.4984   -0.0135 C.3       1 <0>         0.0286
     17 C14        -2.7089   -4.2486    0.0028 C.3       1 <0>         0.0860
     18 C15        -3.4455   -5.5839    0.1273 C.3       1 <0>        -0.0434
     19 N2         -4.8947   -5.3441    0.1428 N.4       1 <0>        -0.3768
     20 C16        -5.2500   -4.5814    1.3456 C.3       1 <0>        -0.0129
     21 C17        -6.7457   -4.2589    1.3263 C.3       1 <0>        -0.1409
     22 C18        -7.5437   -5.5656    1.2943 C.3       1 <0>        -0.0957
     23 C19        -7.1112   -6.3867    0.0760 C.3       1 <0>        -0.1461
     24 C20        -5.6019   -6.6303    0.1417 C.3       1 <0>        -0.0056
     25 C21        -9.0376   -5.2506    1.1948 C.3       1 <0>        -0.0701
     26 C22        -9.8281   -6.5303    1.2869 C.ar      1 <0>        -0.1480
     27 C23       -10.1374   -7.2485    0.1417 C.ar      1 <0>        -0.0763
     28 C24       -10.8666   -8.4200    0.2745 C.ar      1 <0>        -0.1682
     29 C25       -11.2583   -8.8304    1.5350 C.ar      1 <0>         0.1037
     30 N3        -10.9465   -8.1216    2.6022 N.ar      1 <0>        -0.4788
     31 C26       -10.2490   -7.0058    2.5142 C.ar      1 <0>         0.1047
     32 O2         -3.0977   -3.6015   -1.2105 O.3       1 <0>        -0.5423
     33 H2         -0.9602    1.8991    0.0259 H         1 <0>         0.1275
     34 H3          1.1468    3.1684    0.0078 H         1 <0>         0.1320
     35 H4          3.3033    1.9990   -0.0188 H         1 <0>         0.1271
     36 H5         -0.9248   -0.5584    0.0079 H         1 <0>         0.1250
     37 H6          4.7082   -3.4413   -0.0642 H         1 <0>         0.1306
     38 H7          3.3921   -5.5107   -0.0647 H         1 <0>         0.1352
     39 H8          0.9349   -5.4277   -0.0410 H         1 <0>         0.1277
     40 H9         -0.9336   -5.0590   -0.9096 H         1 <0>         0.0781
     41 H10        -0.9163   -5.0702    0.8702 H         1 <0>         0.0826
     42 H11        -2.9629   -3.6131    0.8511 H         1 <0>         0.1345
     43 H12        -3.1914   -6.2194   -0.7210 H         1 <0>         0.1388
     44 H13        -3.1489   -6.0775    1.0527 H         1 <0>         0.1442
     45 H14        -5.0175   -5.1720    2.2317 H         1 <0>         0.1300
     46 H15        -4.6790   -3.6532    1.3686 H         1 <0>         0.1335
     47 H16        -7.0079   -3.6942    2.2209 H         1 <0>         0.1158
     48 H17        -6.9793   -3.6681    0.4406 H         1 <0>         0.0919
     49 H18        -7.3496   -6.1336    2.2041 H         1 <0>         0.0920
     50 H19        -7.6346   -7.3428    0.0771 H         1 <0>         0.1133
     51 H20        -7.3524   -5.8400   -0.8356 H         1 <0>         0.0906
     52 H21        -5.2907   -7.2147   -0.7242 H         1 <0>         0.1307
     53 H22        -5.3619   -7.1772    1.0534 H         1 <0>         0.1293
     54 H23        -9.3241   -4.5869    2.0106 H         1 <0>         0.0884
     55 H24        -9.2436   -4.7641    0.2413 H         1 <0>         0.0818
     56 H25        -9.8181   -6.9032   -0.8305 H         1 <0>         0.1324
     57 H26       -11.1256   -9.0045   -0.5959 H         1 <0>         0.1388
     58 H27       -11.8266   -9.7419    1.6469 H         1 <0>         0.1598
     59 H28       -10.0080   -6.4548    3.4113 H         1 <0>         0.1541
     60 H29        -2.9014   -4.1111   -2.0085 H         1 <0>         0.3899
     61 H30        -5.1561   -4.8169   -0.6768 H         1 <0>         0.4278
@<TRIPOS>BOND
     1    1    6 ar
     2    1    2 ar
     3    1   33 1
     4    2    3 ar
     5    2   34 1
     6    3    4 ar
     7    3   35 1
     8    4    9 1
     9    4    5 ar
    10    5    6 ar
    11    5    7 1
    12    6   36 1
    13    7   14 ar
    14    7    8 ar
    15    8    9 1
    16    8   11 ar
    17    9   10 1
    18   11   12 ar
    19   11   37 1
    20   12   13 ar
    21   12   38 1
    22   13   14 ar
    23   13   39 1
    24   14   15 1
    25   15   16 1
    26   16   17 1
    27   16   40 1
    28   16   41 1
    29   17   18 1
    30   17   32 1
    31   17   42 1
    32   18   19 1
    33   18   43 1
    34   18   44 1
    35   19   24 1
    36   19   20 1
    37   19   61 1
    38   20   21 1
    39   20   45 1
    40   20   46 1
    41   21   22 1
    42   21   47 1
    43   21   48 1
    44   22   23 1
    45   22   25 1
    46   22   49 1
    47   23   24 1
    48   23   50 1
    49   23   51 1
    50   24   52 1
    51   24   53 1
    52   25   26 1
    53   25   54 1
    54   25   55 1
    55   26   31 ar
    56   26   27 ar
    57   27   28 ar
    58   27   56 1
    59   28   29 ar
    60   28   57 1
    61   29   30 ar
    62   29   58 1
    63   30   31 ar
    64   31   59 1
    65   32   60 1
@<TRIPOS>MOLECULE
CHEMBL1082501
   61    65     0     0     0
SMALL
USER_CHARGES

@<TRIPOS>ATOM
      1 C1         -0.0280    1.3710   -0.4962 C.ar      1 <0>        -0.1469
      2 C2          1.1582    2.0846   -0.5730 C.ar      1 <0>        -0.0826
      3 C3          2.3711    1.4299   -0.5724 C.ar      1 <0>        -0.1379
      4 C4          2.4131    0.0412   -0.4948 C.ar      1 <0>         0.1338
      5 C5          1.2120   -0.6794   -0.4171 C.ar      1 <0>        -0.0922
      6 C6         -0.0068   -0.0049   -0.4182 C.ar      1 <0>        -0.0607
      7 C7          1.5832   -2.1042   -0.3475 C.ar      1 <0>        -0.1299
      8 C8          2.9839   -2.1536   -0.3875 C.ar      1 <0>         0.1819
      9 N1          3.4638   -0.8591   -0.4757 N.pl3     1 <0>        -0.6121
     10 H1          4.4021   -0.6172   -0.5184 H         1 <0>         0.4227
     11 C9          3.6250   -3.3880   -0.3375 C.ar      1 <0>        -0.1710
     12 C10         2.8865   -4.5490   -0.2498 C.ar      1 <0>        -0.0442
     13 C11         1.5026   -4.5036   -0.2104 C.ar      1 <0>        -0.2455
     14 C12         0.8448   -3.2868   -0.2584 C.ar      1 <0>         0.1789
     15 O1         -0.5124   -3.2426   -0.2195 O.3       1 <0>        -0.2957
     16 C13        -1.1998   -4.4921   -0.1281 C.3       1 <0>         0.0287
     17 C14        -2.7090   -4.2428   -0.0961 C.3       1 <0>         0.0860
     18 C15        -3.4479   -5.5823   -0.1242 C.3       1 <0>        -0.0434
     19 N2         -4.8971   -5.3425   -0.1086 N.4       1 <0>        -0.3771
     20 C16        -5.6021   -6.6235    0.0199 C.3       1 <0>        -0.0062
     21 C17        -7.1085   -6.3734    0.1181 C.3       1 <0>        -0.1424
     22 C18        -7.5841   -5.6517   -1.1461 C.3       1 <0>        -0.0958
     23 C19        -6.7896   -4.3528   -1.3100 C.3       1 <0>        -0.1446
     24 C20        -5.2950   -4.6778   -1.3553 C.3       1 <0>        -0.0121
     25 C21        -9.0741   -5.3276   -1.0203 C.3       1 <0>        -0.0697
     26 C22        -9.5687   -4.7287   -2.3118 C.ar      1 <0>        -0.1485
     27 C23        -9.5222   -3.3575   -2.5131 C.ar      1 <0>        -0.0758
     28 C24        -9.9881   -2.8511   -3.7165 C.ar      1 <0>        -0.1678
     29 C25       -10.4801   -3.7236   -4.6690 C.ar      1 <0>         0.1038
     30 N3        -10.5094   -5.0223   -4.4430 N.ar      1 <0>        -0.4789
     31 C26       -10.0690   -5.5396   -3.3125 C.ar      1 <0>         0.1044
     32 O2         -3.0498   -3.5358    1.0980 O.3       1 <0>        -0.5423
     33 H2         -0.9721    1.8955   -0.4930 H         1 <0>         0.1273
     34 H3          1.1316    3.1625   -0.6342 H         1 <0>         0.1320
     35 H4          3.2894    1.9951   -0.6326 H         1 <0>         0.1271
     36 H5         -0.9323   -0.5584   -0.3584 H         1 <0>         0.1249
     37 H6          4.7035   -3.4366   -0.3677 H         1 <0>         0.1306
     38 H7          3.3917   -5.5028   -0.2117 H         1 <0>         0.1353
     39 H8          0.9354   -5.4201   -0.1420 H         1 <0>         0.1278
     40 H9         -0.9515   -5.1075   -0.9929 H         1 <0>         0.0825
     41 H10        -0.8972   -5.0075    0.7834 H         1 <0>         0.0783
     42 H11        -2.9979   -3.6503   -0.9642 H         1 <0>         0.1337
     43 H12        -3.1794   -6.1265   -1.0296 H         1 <0>         0.1441
     44 H13        -3.1675   -6.1703    0.7498 H         1 <0>         0.1393
     45 H14        -5.3931   -7.2419   -0.8531 H         1 <0>         0.1298
     46 H15        -5.2603   -7.1374    0.9183 H         1 <0>         0.1318
     47 H16        -7.6303   -7.3258    0.2116 H         1 <0>         0.1160
     48 H17        -7.3187   -5.7552    0.9909 H         1 <0>         0.0911
     49 H18        -7.4209   -6.2907   -2.0139 H         1 <0>         0.0921
     50 H19        -7.0834   -3.8609   -2.2373 H         1 <0>         0.1131
     51 H20        -6.9931   -3.6927   -0.4668 H         1 <0>         0.0914
     52 H21        -4.7264   -3.7553   -1.4722 H         1 <0>         0.1320
     53 H22        -5.0925   -5.3377   -2.1990 H         1 <0>         0.1295
     54 H23        -9.6282   -6.2419   -0.8081 H         1 <0>         0.0879
     55 H24        -9.2238   -4.6154   -0.2088 H         1 <0>         0.0818
     56 H25        -9.1325   -2.6997   -1.7503 H         1 <0>         0.1328
     57 H26        -9.9673   -1.7883   -3.9073 H         1 <0>         0.1391
     58 H27       -10.8449   -3.3371   -5.6092 H         1 <0>         0.1598
     59 H28       -10.1042   -6.6090   -3.1655 H         1 <0>         0.1538
     60 H29        -2.8208   -4.0050    1.9119 H         1 <0>         0.3900
     61 H30        -5.1309   -4.7522    0.6756 H         1 <0>         0.4279
@<TRIPOS>BOND
     1    1    6 ar
     2    1    2 ar
     3    1   33 1
     4    2    3 ar
     5    2   34 1
     6    3    4 ar
     7    3   35 1
     8    4    9 1
     9    4    5 ar
    10    5    6 ar
    11    5    7 1
    12    6   36 1
    13    7   14 ar
    14    7    8 ar
    15    8    9 1
    16    8   11 ar
    17    9   10 1
    18   11   12 ar
    19   11   37 1
    20   12   13 ar
    21   12   38 1
    22   13   14 ar
    23   13   39 1
    24   14   15 1
    25   15   16 1
    26   16   17 1
    27   16   40 1
    28   16   41 1
    29   17   18 1
    30   17   32 1
    31   17   42 1
    32   18   19 1
    33   18   43 1
    34   18   44 1
    35   19   24 1
    36   19   20 1
    37   19   61 1
    38   20   21 1
    39   20   45 1
    40   20   46 1
    41   21   22 1
    42   21   47 1
    43   21   48 1
    44   22   23 1
    45   22   25 1
    46   22   49 1
    47   23   24 1
    48   23   50 1
    49   23   51 1
    50   24   52 1
    51   24   53 1
    52   25   26 1
    53   25   54 1
    54   25   55 1
    55   26   31 ar
    56   26   27 ar
    57   27   28 ar
    58   27   56 1
    59   28   29 ar
    60   28   57 1
    61   29   30 ar
    62   29   58 1
    63   30   31 ar
    64   31   59 1
    65   32   60 1
@<TRIPOS>MOLECULE
CHEMBL1082500
   66    70     0     0     0
SMALL
USER_CHARGES

@<TRIPOS>ATOM
      1 C1         -0.0173    1.4248    0.0099 C.3       1 <0>         0.0255
      2 O1          0.0021   -0.0041    0.0020 O.3       1 <0>        -0.3151
      3 C2          0.6058   -0.6071   -1.0557 C.ar      1 <0>         0.1339
      4 C3          1.1730    0.1607   -2.0624 C.ar      1 <0>        -0.2072
      5 C4          1.7865   -0.4547   -3.1363 C.ar      1 <0>        -0.0787
      6 C5          1.8352   -1.8346   -3.2086 C.ar      1 <0>        -0.1349
      7 C6          1.2702   -2.6021   -2.2068 C.ar      1 <0>        -0.0736
      8 C7          0.6609   -1.9915   -1.1277 C.ar      1 <0>        -0.1482
      9 C8          2.5046   -2.5033   -4.3815 C.3       1 <0>        -0.0688
     10 C9          3.9857   -2.7227   -4.0663 C.3       1 <0>        -0.0951
     11 C10         4.6864   -1.3679   -3.9302 C.3       1 <0>        -0.1454
     12 C11         6.1812   -1.5944   -3.6941 C.3       1 <0>        -0.0058
     13 N1          6.7532   -2.3311   -4.8276 N.4       1 <0>        -0.3773
     14 C12         6.1362   -3.6597   -4.9204 C.3       1 <0>        -0.0134
     15 C13         4.6397   -3.5127   -5.2036 C.3       1 <0>        -0.1416
     16 C14         8.2018   -2.4780   -4.6333 C.3       1 <0>        -0.0433
     17 C15         8.8183   -3.1346   -5.8701 C.3       1 <0>         0.0855
     18 C16        10.3038   -3.4013   -5.6190 C.3       1 <0>         0.0287
     19 O2         10.8528   -4.1186   -6.7264 O.3       1 <0>        -0.2957
     20 C17        12.1719   -4.4371   -6.6620 C.ar      1 <0>         0.1791
     21 C18        12.9217   -4.0739   -5.5569 C.ar      1 <0>        -0.2456
     22 C19        14.2667   -4.3984   -5.4907 C.ar      1 <0>        -0.0442
     23 C20        14.8750   -5.0844   -6.5205 C.ar      1 <0>        -0.1711
     24 C21        14.1398   -5.4591   -7.6415 C.ar      1 <0>         0.1818
     25 C22        12.7765   -5.1379   -7.7084 C.ar      1 <0>        -0.1299
     26 C23        12.2838   -5.6680   -8.9925 C.ar      1 <0>        -0.0922
     27 C24        11.0398   -5.6592   -9.6195 C.ar      1 <0>        -0.0606
     28 C25        10.8907   -6.2550  -10.8533 C.ar      1 <0>        -0.1468
     29 C26        11.9731   -6.8624  -11.4710 C.ar      1 <0>        -0.0826
     30 C27        13.2093   -6.8787  -10.8617 C.ar      1 <0>        -0.1381
     31 C28        13.3801   -6.2817   -9.6165 C.ar      1 <0>         0.1337
     32 N2         14.4854   -6.1375   -8.7965 N.pl3     1 <0>        -0.6121
     33 H1         15.3725   -6.4749   -8.9970 H         1 <0>         0.4226
     34 O3          8.6739   -2.2636   -6.9937 O.3       1 <0>        -0.5417
     35 H2          1.0053    1.8021    0.0021 H         1 <0>         0.0563
     36 H3         -0.5445    1.7859   -0.8732 H         1 <0>         0.0582
     37 H4         -0.5275    1.7763    0.9067 H         1 <0>         0.1054
     38 H5          1.1347    1.2385   -2.0068 H         1 <0>         0.1301
     39 H6          2.2283    0.1425   -3.9203 H         1 <0>         0.1223
     40 H7          1.3092   -3.6798   -2.2657 H         1 <0>         0.1293
     41 H8          0.2237   -2.5913   -0.3432 H         1 <0>         0.1338
     42 H9          2.0276   -3.4646   -4.5726 H         1 <0>         0.0829
     43 H10         2.4108   -1.8695   -5.2632 H         1 <0>         0.0773
     44 H11         4.0814   -3.2792   -3.1340 H         1 <0>         0.0912
     45 H12         4.5456   -0.7917   -4.8447 H         1 <0>         0.0892
     46 H13         4.2633   -0.8224   -3.0867 H         1 <0>         0.1160
     47 H14         6.6832   -0.6318   -3.5966 H         1 <0>         0.1298
     48 H15         6.3210   -2.1703   -2.7793 H         1 <0>         0.1291
     49 H16         6.6049   -4.2218   -5.7281 H         1 <0>         0.1321
     50 H17         6.2769   -4.1916   -3.9794 H         1 <0>         0.1299
     51 H18         4.1831   -4.5002   -5.2704 H         1 <0>         0.1146
     52 H19         4.4979   -2.9810   -6.1446 H         1 <0>         0.0909
     53 H20         8.6496   -1.4958   -4.4822 H         1 <0>         0.1390
     54 H21         8.3898   -3.1014   -3.7592 H         1 <0>         0.1435
     55 H22         8.3092   -4.0769   -6.0730 H         1 <0>         0.1337
     56 H23        10.8288   -2.4530   -5.5041 H         1 <0>         0.0783
     57 H24        10.4183   -3.9924   -4.7105 H         1 <0>         0.0822
     58 H25        12.4570   -3.5357   -4.7440 H         1 <0>         0.1278
     59 H26        14.8443   -4.1111   -4.6246 H         1 <0>         0.1352
     60 H27        15.9245   -5.3314   -6.4573 H         1 <0>         0.1305
     61 H28        10.1949   -5.1873   -9.1401 H         1 <0>         0.1251
     62 H29         9.9269   -6.2490  -11.3406 H         1 <0>         0.1275
     63 H30        11.8465   -7.3270  -12.4377 H         1 <0>         0.1320
     64 H31        14.0460   -7.3549  -11.3513 H         1 <0>         0.1271
     65 H32         9.1034   -1.4043   -6.8830 H         1 <0>         0.3901
     66 H33         6.5803   -1.8208   -5.6807 H         1 <0>         0.4280
@<TRIPOS>BOND
     1    1    2 1
     2    1   35 1
     3    1   36 1
     4    1   37 1
     5    2    3 1
     6    3    8 ar
     7    3    4 ar
     8    4    5 ar
     9    4   38 1
    10    5    6 ar
    11    5   39 1
    12    6    7 ar
    13    6    9 1
    14    7    8 ar
    15    7   40 1
    16    8   41 1
    17    9   10 1
    18    9   42 1
    19    9   43 1
    20   10   15 1
    21   10   11 1
    22   10   44 1
    23   11   12 1
    24   11   45 1
    25   11   46 1
    26   12   13 1
    27   12   47 1
    28   12   48 1
    29   13   14 1
    30   13   16 1
    31   13   66 1
    32   14   15 1
    33   14   49 1
    34   14   50 1
    35   15   51 1
    36   15   52 1
    37   16   17 1
    38   16   53 1
    39   16   54 1
    40   17   18 1
    41   17   34 1
    42   17   55 1
    43   18   19 1
    44   18   56 1
    45   18   57 1
    46   19   20 1
    47   20   25 ar
    48   20   21 ar
    49   21   22 ar
    50   21   58 1
    51   22   23 ar
    52   22   59 1
    53   23   24 ar
    54   23   60 1
    55   24   32 1
    56   24   25 ar
    57   25   26 1
    58   26   31 ar
    59   26   27 ar
    60   27   28 ar
    61   27   61 1
    62   28   29 ar
    63   28   62 1
    64   29   30 ar
    65   29   63 1
    66   30   31 ar
    67   30   64 1
    68   31   32 1
    69   32   33 1
    70   34   65 1
@<TRIPOS>MOLECULE
CHEMBL1082500
   66    70     0     0     0
SMALL
USER_CHARGES

@<TRIPOS>ATOM
      1 C1          0.4848    1.6919    0.6017 C.3       1 <0>         0.0254
      2 O1          0.4826    0.2632    0.6338 O.3       1 <0>        -0.3152
      3 C2          0.9813   -0.3791   -0.4551 C.ar      1 <0>         0.1340
      4 C3          1.4680    0.3506   -1.5299 C.ar      1 <0>        -0.2069
      5 C4          1.9748   -0.3047   -2.6354 C.ar      1 <0>        -0.0781
      6 C5          1.9967   -1.6867   -2.6714 C.ar      1 <0>        -0.1353
      7 C6          1.5118   -2.4163   -1.6017 C.ar      1 <0>        -0.0738
      8 C7          1.0096   -1.7657   -0.4913 C.ar      1 <0>        -0.1484
      9 C8          2.5497   -2.3990   -3.8789 C.3       1 <0>        -0.0685
     10 C9          4.0495   -2.6349   -3.6894 C.3       1 <0>        -0.0953
     11 C10         4.7792   -1.2889   -3.6552 C.3       1 <0>        -0.1438
     12 C11         6.2856   -1.5343   -3.5456 C.3       1 <0>        -0.0123
     13 N1          6.7440   -2.3118   -4.7031 N.4       1 <0>        -0.3769
     14 C12         6.1019   -3.6317   -4.7023 C.3       1 <0>        -0.0058
     15 C13         4.5885   -3.4671   -4.8565 C.3       1 <0>        -0.1430
     16 C14         8.2018   -2.4780   -4.6333 C.3       1 <0>        -0.0435
     17 C15         8.8788   -1.1153   -4.7943 C.3       1 <0>         0.0860
     18 C16        10.3970   -1.2877   -4.7159 C.3       1 <0>         0.0288
     19 O2         11.0244   -0.0042   -4.7493 O.3       1 <0>        -0.2957
     20 C17        12.3814    0.0207   -4.6880 C.ar      1 <0>         0.1791
     21 C18        13.0954   -1.1618   -4.6034 C.ar      1 <0>        -0.2455
     22 C19        14.4789   -1.1370   -4.5408 C.ar      1 <0>        -0.0442
     23 C20        15.1613    0.0609   -4.5613 C.ar      1 <0>        -0.1711
     24 C21        14.4631    1.2621   -4.6455 C.ar      1 <0>         0.1818
     25 C22        13.0629    1.2399   -4.7157 C.ar      1 <0>        -0.1300
     26 C23        12.6255    2.6448   -4.8036 C.ar      1 <0>        -0.0921
     27 C24        11.3771    3.2568   -4.8906 C.ar      1 <0>        -0.0606
     28 C25        11.2913    4.6305   -4.9608 C.ar      1 <0>        -0.1469
     29 C26        12.4420    5.4039   -4.9455 C.ar      1 <0>        -0.0827
     30 C27        13.6834    4.8114   -4.8603 C.ar      1 <0>        -0.1380
     31 C28        13.7906    3.4259   -4.7876 C.ar      1 <0>         0.1337
     32 N2         14.8810    2.5804   -4.6823 N.pl3     1 <0>        -0.6121
     33 H1         15.8063    2.8698   -4.6515 H         1 <0>         0.4226
     34 O3          8.5277   -0.5557   -6.0614 O.3       1 <0>        -0.5422
     35 H2          1.5081    2.0513    0.4927 H         1 <0>         0.0566
     36 H3         -0.1133    2.0373   -0.2415 H         1 <0>         0.0582
     37 H4          0.0614    2.0768    1.5294 H         1 <0>         0.1054
     38 H5          1.4505    1.4301   -1.5025 H         1 <0>         0.1303
     39 H6          2.3539    0.2630   -3.4723 H         1 <0>         0.1227
     40 H7          1.5297   -3.4957   -1.6324 H         1 <0>         0.1289
     41 H8          0.6350   -2.3360    0.3458 H         1 <0>         0.1336
     42 H9          2.0436   -3.3569   -3.9990 H         1 <0>         0.0824
     43 H10         2.3873   -1.7883   -4.7670 H         1 <0>         0.0772
     44 H11         4.2194   -3.1668   -2.7534 H         1 <0>         0.0911
     45 H12         4.5662   -0.7360   -4.5701 H         1 <0>         0.0898
     46 H13         4.4406   -0.7131   -2.7940 H         1 <0>         0.1157
     47 H14         6.8082   -0.5780   -3.5208 H         1 <0>         0.1311
     48 H15         6.4976   -2.0870   -2.6303 H         1 <0>         0.1292
     49 H16         6.4889   -4.2240   -5.5316 H         1 <0>         0.1306
     50 H17         6.3178   -4.1397   -3.7624 H         1 <0>         0.1293
     51 H18         4.1135   -4.4481   -4.8539 H         1 <0>         0.1145
     52 H19         4.3714   -2.9594   -5.7964 H         1 <0>         0.0901
     53 H20         8.4729   -2.9066   -3.6685 H         1 <0>         0.1439
     54 H21         8.5303   -3.1434   -5.4317 H         1 <0>         0.1388
     55 H22         8.5472   -0.4486   -3.9982 H         1 <0>         0.1338
     56 H23        10.6576   -1.7954   -3.7873 H         1 <0>         0.0825
     57 H24        10.7395   -1.8817   -5.5633 H         1 <0>         0.0782
     58 H25        12.5725   -2.1066   -4.5858 H         1 <0>         0.1278
     59 H26        15.0282   -2.0645   -4.4749 H         1 <0>         0.1352
     60 H27        16.2402    0.0672   -4.5116 H         1 <0>         0.1305
     61 H28        10.4793    2.6566   -4.9034 H         1 <0>         0.1250
     62 H29        10.3242    5.1064   -5.0282 H         1 <0>         0.1273
     63 H30        12.3648    6.4797   -5.0013 H         1 <0>         0.1319
     64 H31        14.5736    5.4228   -4.8495 H         1 <0>         0.1271
     65 H32         8.7928   -1.0971   -6.8175 H         1 <0>         0.3898
     66 H33         6.5035   -1.8225   -5.5522 H         1 <0>         0.4277
@<TRIPOS>BOND
     1    1    2 1
     2    1   35 1
     3    1   36 1
     4    1   37 1
     5    2    3 1
     6    3    8 ar
     7    3    4 ar
     8    4    5 ar
     9    4   38 1
    10    5    6 ar
    11    5   39 1
    12    6    7 ar
    13    6    9 1
    14    7    8 ar
    15    7   40 1
    16    8   41 1
    17    9   10 1
    18    9   42 1
    19    9   43 1
    20   10   15 1
    21   10   11 1
    22   10   44 1
    23   11   12 1
    24   11   45 1
    25   11   46 1
    26   12   13 1
    27   12   47 1
    28   12   48 1
    29   13   14 1
    30   13   16 1
    31   13   66 1
    32   14   15 1
    33   14   49 1
    34   14   50 1
    35   15   51 1
    36   15   52 1
    37   16   17 1
    38   16   53 1
    39   16   54 1
    40   17   18 1
    41   17   34 1
    42   17   55 1
    43   18   19 1
    44   18   56 1
    45   18   57 1
    46   19   20 1
    47   20   25 ar
    48   20   21 ar
    49   21   22 ar
    50   21   58 1
    51   22   23 ar
    52   22   59 1
    53   23   24 ar
    54   23   60 1
    55   24   32 1
    56   24   25 ar
    57   25   26 1
    58   26   31 ar
    59   26   27 ar
    60   27   28 ar
    61   27   61 1
    62   28   29 ar
    63   28   62 1
    64   29   30 ar
    65   29   63 1
    66   30   31 ar
    67   30   64 1
    68   31   32 1
    69   32   33 1
    70   34   65 1
@<TRIPOS>MOLECULE
CHEMBL1203891
   57    60     0     0     0
SMALL
USER_CHARGES

@<TRIPOS>ATOM
      1 C1         -0.0775    1.3488   -0.3035 C.ar      1 <0>        -0.0823
      2 C2          1.1000    2.0693   -0.3684 C.ar      1 <0>        -0.1507
      3 C3          2.3170    1.4093   -0.3452 C.ar      1 <0>         0.1048
      4 C4          2.3526    0.0280   -0.2568 C.ar      1 <0>        -0.1505
      5 C5          1.1738   -0.6904   -0.1920 C.ar      1 <0>        -0.0803
      6 C6         -0.0407   -0.0303   -0.2152 C.ar      1 <0>        -0.0994
      7 C7         -1.3255   -0.8148   -0.1444 C.3       1 <0>         0.0033
      8 C8         -1.3532   -1.6829    1.1314 C.3       1 <0>        -0.1083
      9 C9         -2.1076   -2.9435    0.6582 C.3       1 <0>         0.1295
     10 C10        -1.8549   -3.0203   -0.8323 C.ar      1 <0>        -0.0798
     11 C11        -1.4053   -1.7968   -1.2937 C.ar      1 <0>        -0.0752
     12 C12        -1.1082   -1.6324   -2.6361 C.ar      1 <0>        -0.0673
     13 C13        -1.2594   -2.6858   -3.5163 C.ar      1 <0>        -0.1369
     14 C14        -1.7093   -3.9112   -3.0554 C.ar      1 <0>         0.1041
     15 C15        -2.0058   -4.0766   -1.7140 C.ar      1 <0>        -0.1424
     16 F1         -1.8587   -4.9437   -3.9138 F         1 <0>        -0.1329
     17 N1         -3.5458   -2.8070    0.9249 N.3       1 <0>        -0.5267
     18 C16        -3.8111   -2.7577    2.3697 C.3       1 <0>         0.0211
     19 C17        -5.3099   -2.5557    2.6033 C.3       1 <0>        -0.0008
     20 N2         -6.0549   -3.6624    1.9888 N.4       1 <0>        -0.3870
     21 C18        -5.7992   -3.6836    0.5425 C.3       1 <0>        -0.0052
     22 C19        -4.3045   -3.8950    0.2917 C.3       1 <0>         0.0186
     23 C20        -7.4923   -3.4776    2.2289 C.3       1 <0>        -0.0071
     24 C21        -8.2582   -4.6913    1.6984 C.3       1 <0>        -0.1463
     25 C22        -9.7553   -4.4988    1.9485 C.3       1 <0>        -0.1200
     26 C23       -10.5212   -5.7124    1.4180 C.3       1 <0>         0.0744
     27 O1        -11.9194   -5.5327    1.6516 O.3       1 <0>        -0.5732
     28 F2          3.4687    2.1126   -0.4091 F         1 <0>        -0.1352
     29 H1         -1.0268    1.8637   -0.3171 H         1 <0>         0.1332
     30 H2          1.0710    3.1467   -0.4377 H         1 <0>         0.1387
     31 H3          3.3013   -0.4879   -0.2390 H         1 <0>         0.1377
     32 H4          1.2013   -1.7678   -0.1234 H         1 <0>         0.1291
     33 H5         -2.1814   -0.1401   -0.1632 H         1 <0>         0.1035
     34 H6         -0.3419   -1.9339    1.4513 H         1 <0>         0.0913
     35 H7         -1.8999   -1.1811    1.9297 H         1 <0>         0.0898
     36 H8         -1.7125   -3.8296    1.1550 H         1 <0>         0.0690
     37 H9         -0.7572   -0.6766   -2.9963 H         1 <0>         0.1356
     38 H10        -1.0274   -2.5537   -4.5627 H         1 <0>         0.1434
     39 H11        -2.3568   -5.0325   -1.3541 H         1 <0>         0.1311
     40 H12        -3.4942   -3.6935    2.8298 H         1 <0>         0.0631
     41 H13        -3.2591   -1.9288    2.8127 H         1 <0>         0.1282
     42 H14        -5.5108   -2.5330    3.6744 H         1 <0>         0.1371
     43 H15        -5.6238   -1.6131    2.1548 H         1 <0>         0.1389
     44 H16        -6.3628   -4.4972    0.0858 H         1 <0>         0.1361
     45 H17        -6.1105   -2.7353    0.1046 H         1 <0>         0.1389
     46 H18        -4.1123   -3.8959   -0.7812 H         1 <0>         0.1279
     47 H19        -3.9956   -4.8496    0.7177 H         1 <0>         0.0617
     48 H20        -7.6716   -3.3742    3.2991 H         1 <0>         0.1335
     49 H21        -7.8340   -2.5792    1.7148 H         1 <0>         0.1329
     50 H22        -8.0789   -4.7947    0.6282 H         1 <0>         0.0889
     51 H23        -7.9165   -5.5896    2.2125 H         1 <0>         0.0886
     52 H24        -9.9346   -4.3954    3.0187 H         1 <0>         0.0821
     53 H25       -10.0970   -3.6004    1.4344 H         1 <0>         0.0822
     54 H26       -10.3419   -5.8158    0.3479 H         1 <0>         0.0487
     55 H27       -10.1795   -6.6108    1.9321 H         1 <0>         0.0487
     56 H28       -12.4677   -6.2657    1.3400 H         1 <0>         0.3914
     57 H29        -5.7559   -4.5359    2.3959 H         1 <0>         0.4204
@<TRIPOS>BOND
     1    1    6 ar
     2    1    2 ar
     3    1   29 1
     4    2    3 ar
     5    2   30 1
     6    3    4 ar
     7    3   28 1
     8    4    5 ar
     9    4   31 1
    10    5    6 ar
    11    5   32 1
    12    6    7 1
    13    7   11 1
    14    7    8 1
    15    7   33 1
    16    8    9 1
    17    8   34 1
    18    8   35 1
    19    9   10 1
    20    9   17 1
    21    9   36 1
    22   10   15 ar
    23   10   11 ar
    24   11   12 ar
    25   12   13 ar
    26   12   37 1
    27   13   14 ar
    28   13   38 1
    29   14   15 ar
    30   14   16 1
    31   15   39 1
    32   17   22 1
    33   17   18 1
    34   18   19 1
    35   18   40 1
    36   18   41 1
    37   19   20 1
    38   19   42 1
    39   19   43 1
    40   20   21 1
    41   20   23 1
    42   20   57 1
    43   21   22 1
    44   21   44 1
    45   21   45 1
    46   22   46 1
    47   22   47 1
    48   23   24 1
    49   23   48 1
    50   23   49 1
    51   24   25 1
    52   24   50 1
    53   24   51 1
    54   25   26 1
    55   25   52 1
    56   25   53 1
    57   26   27 1
    58   26   54 1
    59   26   55 1
    60   27   56 1
@<TRIPOS>MOLECULE
CHEMBL1203891
   57    60     0     0     0
SMALL
USER_CHARGES

@<TRIPOS>ATOM
      1 C1         -4.4528   -2.1065   -3.4975 C.ar      1 <0>        -0.0808
      2 C2         -5.1383   -2.6678   -4.5581 C.ar      1 <0>        -0.1469
      3 C3         -5.5767   -3.9790   -4.4823 C.ar      1 <0>         0.1046
      4 C4         -5.3275   -4.7263   -3.3436 C.ar      1 <0>        -0.1527
      5 C5         -4.6418   -4.1629   -2.2843 C.ar      1 <0>        -0.0846
      6 C6         -4.2046   -2.8537   -2.3612 C.ar      1 <0>        -0.0939
      7 C7         -3.4568   -2.2405   -1.2054 C.3       1 <0>        -0.0020
      8 C8         -2.2009   -3.0752   -0.8768 C.3       1 <0>        -0.1496
      9 C9         -2.1076   -2.9435    0.6582 C.3       1 <0>         0.1313
     10 C10        -3.5263   -2.6893    1.1209 C.ar      1 <0>        -0.0772
     11 C11        -4.3019   -2.2852    0.0498 C.ar      1 <0>        -0.0938
     12 C12        -5.6426   -1.9952    0.2392 C.ar      1 <0>        -0.0667
     13 C13        -6.2083   -2.1078    1.4940 C.ar      1 <0>        -0.1400
     14 C14        -5.4328   -2.5124    2.5670 C.ar      1 <0>         0.1029
     15 C15        -4.0931   -2.8030    2.3786 C.ar      1 <0>        -0.1254
     16 F1         -5.9829   -2.6232    3.7959 F         1 <0>        -0.1328
     17 N1         -1.5949   -4.1882    1.2464 N.3       1 <0>        -0.5268
     18 C16        -0.2106   -4.4401    0.8220 C.3       1 <0>         0.0236
     19 C17         0.3050   -5.7105    1.5018 C.3       1 <0>        -0.0017
     20 N2         -0.5522   -6.8451    1.1341 N.4       1 <0>        -0.3868
     21 C18        -1.9262   -6.5897    1.5862 C.3       1 <0>        -0.0063
     22 C19        -2.4603   -5.3266    0.9071 C.3       1 <0>         0.0169
     23 C20        -0.0463   -8.0677    1.7724 C.3       1 <0>        -0.0072
     24 C21        -0.8625   -9.2692    1.2916 C.3       1 <0>        -0.1463
     25 C22        -0.3356  -10.5425    1.9564 C.3       1 <0>        -0.1200
     26 C23        -1.1517  -11.7441    1.4756 C.3       1 <0>         0.0744
     27 O1         -0.6596  -12.9333    2.0966 O.3       1 <0>        -0.5731
     28 F2         -6.2474   -4.5286   -5.5183 F         1 <0>        -0.1345
     29 H1         -4.1069   -1.0852   -3.5583 H         1 <0>         0.1361
     30 H2         -5.3324   -2.0838   -5.4456 H         1 <0>         0.1406
     31 H3         -5.6693   -5.7491   -3.2832 H         1 <0>         0.1358
     32 H4         -4.4476   -4.7456   -1.3959 H         1 <0>         0.1225
     33 H5         -3.1793   -1.2124   -1.4380 H         1 <0>         0.1054
     34 H6         -2.3403   -4.1162   -1.1686 H         1 <0>         0.0811
     35 H7         -1.3182   -2.6522   -1.3563 H         1 <0>         0.0907
     36 H8         -1.4659   -2.1046    0.9275 H         1 <0>         0.1179
     37 H9         -6.2481   -1.6795   -0.5975 H         1 <0>         0.1341
     38 H10        -7.2541   -1.8801    1.6381 H         1 <0>         0.1426
     39 H11        -3.4878   -3.1187    3.2154 H         1 <0>         0.1384
     40 H12        -0.1795   -4.5684   -0.2600 H         1 <0>         0.0647
     41 H13         0.4166   -3.5952    1.1065 H         1 <0>         0.1265
     42 H14         1.3269   -5.9070    1.1773 H         1 <0>         0.1369
     43 H15         0.2866   -5.5768    2.5834 H         1 <0>         0.1389
     44 H16        -2.5585   -7.4380    1.3243 H         1 <0>         0.1359
     45 H17        -1.9331   -6.4515    2.6673 H         1 <0>         0.1391
     46 H18        -3.4746   -5.1285    1.2537 H         1 <0>         0.1251
     47 H19        -2.4663   -5.4695   -0.1735 H         1 <0>         0.0659
     48 H20         1.0010   -8.2099    1.5061 H         1 <0>         0.1336
     49 H21        -0.1369   -7.9766    2.8548 H         1 <0>         0.1331
     50 H22        -1.9098   -9.1270    1.5579 H         1 <0>         0.0889
     51 H23        -0.7719   -9.3603    0.2092 H         1 <0>         0.0886
     52 H24         0.7118  -10.6847    1.6901 H         1 <0>         0.0822
     53 H25        -0.4261  -10.4514    3.0388 H         1 <0>         0.0823
     54 H26        -2.1991  -11.6018    1.7419 H         1 <0>         0.0486
     55 H27        -1.0611  -11.8351    0.3932 H         1 <0>         0.0487
     56 H28        -1.1315  -13.7365    1.8373 H         1 <0>         0.3914
     57 H29        -0.5443   -6.9615    0.1318 H         1 <0>         0.4201
@<TRIPOS>BOND
     1    1    6 ar
     2    1    2 ar
     3    1   29 1
     4    2    3 ar
     5    2   30 1
     6    3    4 ar
     7    3   28 1
     8    4    5 ar
     9    4   31 1
    10    5    6 ar
    11    5   32 1
    12    6    7 1
    13    7   11 1
    14    7    8 1
    15    7   33 1
    16    8    9 1
    17    8   34 1
    18    8   35 1
    19    9   10 1
    20    9   17 1
    21    9   36 1
    22   10   15 ar
    23   10   11 ar
    24   11   12 ar
    25   12   13 ar
    26   12   37 1
    27   13   14 ar
    28   13   38 1
    29   14   15 ar
    30   14   16 1
    31   15   39 1
    32   17   22 1
    33   17   18 1
    34   18   19 1
    35   18   40 1
    36   18   41 1
    37   19   20 1
    38   19   42 1
    39   19   43 1
    40   20   21 1
    41   20   23 1
    42   20   57 1
    43   21   22 1
    44   21   44 1
    45   21   45 1
    46   22   46 1
    47   22   47 1
    48   23   24 1
    49   23   48 1
    50   23   49 1
    51   24   25 1
    52   24   50 1
    53   24   51 1
    54   25   26 1
    55   25   52 1
    56   25   53 1
    57   26   27 1
    58   26   54 1
    59   26   55 1
    60   27   56 1
@<TRIPOS>MOLECULE
CHEMBL1203891
   57    60     0     0     0
SMALL
USER_CHARGES

@<TRIPOS>ATOM
      1 C1         -5.9445   -0.1653   -1.7245 C.ar      1 <0>        -0.0808
      2 C2         -6.9222    0.1230   -2.6577 C.ar      1 <0>        -0.1469
      3 C3         -6.8144   -0.3692   -3.9473 C.ar      1 <0>         0.1048
      4 C4         -5.7268   -1.1499   -4.3005 C.ar      1 <0>        -0.1526
      5 C5         -4.7503   -1.4370   -3.3656 C.ar      1 <0>        -0.0845
      6 C6         -4.8590   -0.9449   -2.0783 C.ar      1 <0>        -0.0941
      7 C7         -3.7935   -1.2586   -1.0598 C.3       1 <0>        -0.0021
      8 C8         -3.6341   -2.7860   -0.9046 C.3       1 <0>        -0.1491
      9 C9         -2.1201   -2.9365   -0.6452 C.3       1 <0>         0.1314
     10 C10        -1.4836   -1.7309   -1.3031 C.ar      1 <0>        -0.0777
     11 C11        -2.4454   -0.7665   -1.5414 C.ar      1 <0>        -0.0937
     12 C12        -2.0891    0.4302   -2.1400 C.ar      1 <0>        -0.0666
     13 C13        -0.7765    0.6643   -2.5002 C.ar      1 <0>        -0.1399
     14 C14         0.1872   -0.3006   -2.2621 C.ar      1 <0>         0.1031
     15 C15        -0.1680   -1.4967   -1.6639 C.ar      1 <0>        -0.1261
     16 F1          1.4720   -0.0750   -2.6137 F         1 <0>        -0.1326
     17 N1         -1.6189   -4.1747   -1.2564 N.3       1 <0>        -0.5267
     18 C16        -1.8306   -4.1674   -2.7108 C.3       1 <0>         0.0163
     19 C17        -1.2428   -5.4444   -3.3153 C.3       1 <0>        -0.0017
     20 N2         -1.8941   -6.6157   -2.7143 N.4       1 <0>        -0.3866
     21 C18        -1.6531   -6.6224   -1.2654 C.3       1 <0>        -0.0066
     22 C19        -2.2444   -5.3552   -0.6438 C.3       1 <0>         0.0240
     23 C20        -1.3423   -7.8408   -3.3079 C.3       1 <0>        -0.0075
     24 C21        -2.1057   -9.0547   -2.7744 C.3       1 <0>        -0.1457
     25 C22        -1.5309  -10.3307   -3.3927 C.3       1 <0>        -0.1203
     26 C23        -2.2944  -11.5446   -2.8592 C.3       1 <0>         0.0746
     27 O1         -1.7576  -12.7364   -3.4367 O.3       1 <0>        -0.5732
     28 F2         -7.7698   -0.0883   -4.8602 F         1 <0>        -0.1344
     29 H1         -6.0261    0.2222   -0.7198 H         1 <0>         0.1361
     30 H2         -7.7703    0.7318   -2.3810 H         1 <0>         0.1406
     31 H3         -5.6418   -1.5347   -5.3060 H         1 <0>         0.1360
     32 H4         -3.9021   -2.0462   -3.6408 H         1 <0>         0.1224
     33 H5         -4.0419   -0.8035   -0.1011 H         1 <0>         0.1054
     34 H6         -4.2110   -3.1513   -0.0550 H         1 <0>         0.0908
     35 H7         -3.9233   -3.3008   -1.8209 H         1 <0>         0.0806
     36 H8         -1.9178   -2.9337    0.4259 H         1 <0>         0.1181
     37 H9         -2.8405    1.1833   -2.3263 H         1 <0>         0.1342
     38 H10        -0.5023    1.5987   -2.9672 H         1 <0>         0.1427
     39 H11         0.5835   -2.2497   -1.4780 H         1 <0>         0.1385
     40 H12        -2.8990   -4.1231   -2.9226 H         1 <0>         0.0655
     41 H13        -1.3370   -3.2984   -3.1458 H         1 <0>         0.1259
     42 H14        -1.4114   -5.4476   -4.3922 H         1 <0>         0.1360
     43 H15        -0.1719   -5.4815   -3.1151 H         1 <0>         0.1390
     44 H16        -2.1259   -7.4990   -0.8225 H         1 <0>         0.1368
     45 H17        -0.5802   -6.6535   -1.0757 H         1 <0>         0.1392
     46 H18        -2.0526   -5.3528    0.4292 H         1 <0>         0.1260
     47 H19        -3.3195   -5.3305   -0.8215 H         1 <0>         0.0646
     48 H20        -1.4427   -7.7963   -4.3923 H         1 <0>         0.1332
     49 H21        -0.2884   -7.9297   -3.0439 H         1 <0>         0.1332
     50 H22        -2.0053   -9.0992   -1.6900 H         1 <0>         0.0892
     51 H23        -3.1595   -8.9659   -3.0384 H         1 <0>         0.0885
     52 H24        -1.6314  -10.2862   -4.4771 H         1 <0>         0.0821
     53 H25        -0.4771  -10.4196   -3.1287 H         1 <0>         0.0823
     54 H26        -2.1940  -11.5891   -1.7748 H         1 <0>         0.0487
     55 H27        -3.3482  -11.4558   -3.1232 H         1 <0>         0.0487
     56 H28        -2.1947  -13.5473   -3.1427 H         1 <0>         0.3914
     57 H29        -2.8869   -6.5751   -2.8897 H         1 <0>         0.4200
@<TRIPOS>BOND
     1    1    6 ar
     2    1    2 ar
     3    1   29 1
     4    2    3 ar
     5    2   30 1
     6    3    4 ar
     7    3   28 1
     8    4    5 ar
     9    4   31 1
    10    5    6 ar
    11    5   32 1
    12    6    7 1
    13    7   11 1
    14    7    8 1
    15    7   33 1
    16    8    9 1
    17    8   34 1
    18    8   35 1
    19    9   10 1
    20    9   17 1
    21    9   36 1
    22   10   15 ar
    23   10   11 ar
    24   11   12 ar
    25   12   13 ar
    26   12   37 1
    27   13   14 ar
    28   13   38 1
    29   14   15 ar
    30   14   16 1
    31   15   39 1
    32   17   22 1
    33   17   18 1
    34   18   19 1
    35   18   40 1
    36   18   41 1
    37   19   20 1
    38   19   42 1
    39   19   43 1
    40   20   21 1
    41   20   23 1
    42   20   57 1
    43   21   22 1
    44   21   44 1
    45   21   45 1
    46   22   46 1
    47   22   47 1
    48   23   24 1
    49   23   48 1
    50   23   49 1
    51   24   25 1
    52   24   50 1
    53   24   51 1
    54   25   26 1
    55   25   52 1
    56   25   53 1
    57   26   27 1
    58   26   54 1
    59   26   55 1
    60   27   56 1
@<TRIPOS>MOLECULE
CHEMBL1203891
   57    60     0     0     0
SMALL
USER_CHARGES

@<TRIPOS>ATOM
      1 C1          0.2643   -3.8553   -4.7611 C.ar      1 <0>        -0.0823
      2 C2          1.4278   -4.3427   -5.3256 C.ar      1 <0>        -0.1507
      3 C3          2.5506   -4.5354   -4.5387 C.ar      1 <0>         0.1048
      4 C4          2.5063   -4.2395   -3.1868 C.ar      1 <0>        -0.1505
      5 C5          1.3417   -3.7522   -2.6245 C.ar      1 <0>        -0.0804
      6 C6          0.2213   -3.5601   -3.4112 C.ar      1 <0>        -0.0994
      7 C7         -1.0480   -3.0286   -2.7968 C.3       1 <0>         0.0034
      8 C8         -1.5079   -3.9434   -1.6419 C.3       1 <0>        -0.1078
      9 C9         -2.1201   -2.9365   -0.6452 C.3       1 <0>         0.1296
     10 C10        -1.4136   -1.6265   -0.9211 C.ar      1 <0>        -0.0804
     11 C11        -0.7974   -1.6794   -2.1579 C.ar      1 <0>        -0.0753
     12 C12        -0.0870   -0.5852   -2.6222 C.ar      1 <0>        -0.0673
     13 C13         0.0086    0.5589   -1.8547 C.ar      1 <0>        -0.1369
     14 C14        -0.6079    0.6129   -0.6164 C.ar      1 <0>         0.1042
     15 C15        -1.3180   -0.4799   -0.1516 C.ar      1 <0>        -0.1424
     16 F1         -0.5159    1.7304    0.1372 F         1 <0>        -0.1327
     17 N1         -3.5631   -2.7973   -0.8829 N.3       1 <0>        -0.5266
     18 C16        -4.1177   -1.6744   -0.1137 C.3       1 <0>         0.0180
     19 C17        -5.6067   -1.5265   -0.4342 C.3       1 <0>        -0.0005
     20 N2         -6.3075   -2.7710   -0.0911 N.4       1 <0>        -0.3870
     21 C18        -5.7593   -3.8786   -0.8850 C.3       1 <0>        -0.0056
     22 C19        -4.2716   -4.0460   -0.5682 C.3       1 <0>         0.0219
     23 C20        -7.7397   -2.6223   -0.3821 C.3       1 <0>        -0.0074
     24 C21        -8.4883   -3.8703    0.0901 C.3       1 <0>        -0.1457
     25 C22        -9.9799   -3.7154   -0.2130 C.3       1 <0>        -0.1203
     26 C23       -10.7285   -4.9635    0.2592 C.3       1 <0>         0.0745
     27 O1        -12.1217   -4.8188   -0.0238 O.3       1 <0>        -0.5732
     28 F2          3.6883   -5.0123   -5.0894 F         1 <0>        -0.1352
     29 H1         -0.6102   -3.7007   -5.3756 H         1 <0>         0.1332
     30 H2          1.4611   -4.5735   -6.3801 H         1 <0>         0.1387
     31 H3          3.3813   -4.3898   -2.5719 H         1 <0>         0.1377
     32 H4          1.3068   -3.5216   -1.5700 H         1 <0>         0.1291
     33 H5         -1.8292   -2.9498   -3.5528 H         1 <0>         0.1035
     34 H6         -2.2596   -4.6537   -1.9861 H         1 <0>         0.0896
     35 H7         -0.6587   -4.4618   -1.1966 H         1 <0>         0.0911
     36 H8         -1.9341   -3.2580    0.3796 H         1 <0>         0.0691
     37 H9          0.3944   -0.6269   -3.5881 H         1 <0>         0.1356
     38 H10         0.5638    1.4102   -2.2199 H         1 <0>         0.1435
     39 H11        -1.7991   -0.4382    0.8144 H         1 <0>         0.1313
     40 H12        -3.9923   -1.8664    0.9519 H         1 <0>         0.0619
     41 H13        -3.5949   -0.7564   -0.3821 H         1 <0>         0.1285
     42 H14        -6.0232   -0.7032    0.1460 H         1 <0>         0.1362
     43 H15        -5.7307   -1.3210   -1.4975 H         1 <0>         0.1387
     44 H16        -6.2889   -4.7989   -0.6389 H         1 <0>         0.1369
     45 H17        -5.8826   -3.6610   -1.9459 H         1 <0>         0.1392
     46 H18        -3.8611   -4.8582   -1.1682 H         1 <0>         0.1275
     47 H19        -4.1488   -4.2771    0.4899 H         1 <0>         0.0629
     48 H20        -8.1274   -1.7471    0.1393 H         1 <0>         0.1332
     49 H21        -7.8813   -2.4980   -1.4557 H         1 <0>         0.1330
     50 H22        -8.1006   -4.7455   -0.4312 H         1 <0>         0.0891
     51 H23        -8.3466   -3.9945    1.1637 H         1 <0>         0.0885
     52 H24       -10.3676   -2.8402    0.3084 H         1 <0>         0.0821
     53 H25       -10.1216   -3.5912   -1.2866 H         1 <0>         0.0823
     54 H26       -10.3408   -5.8387   -0.2621 H         1 <0>         0.0487
     55 H27       -10.5869   -5.0877    1.3328 H         1 <0>         0.0487
     56 H28       -12.6592   -5.5749    0.2493 H         1 <0>         0.3914
     57 H29        -6.1827   -2.9672    0.8907 H         1 <0>         0.4203
@<TRIPOS>BOND
     1    1    6 ar
     2    1    2 ar
     3    1   29 1
     4    2    3 ar
     5    2   30 1
     6    3    4 ar
     7    3   28 1
     8    4    5 ar
     9    4   31 1
    10    5    6 ar
    11    5   32 1
    12    6    7 1
    13    7   11 1
    14    7    8 1
    15    7   33 1
    16    8    9 1
    17    8   34 1
    18    8   35 1
    19    9   10 1
    20    9   17 1
    21    9   36 1
    22   10   15 ar
    23   10   11 ar
    24   11   12 ar
    25   12   13 ar
    26   12   37 1
    27   13   14 ar
    28   13   38 1
    29   14   15 ar
    30   14   16 1
    31   15   39 1
    32   17   22 1
    33   17   18 1
    34   18   19 1
    35   18   40 1
    36   18   41 1
    37   19   20 1
    38   19   42 1
    39   19   43 1
    40   20   21 1
    41   20   23 1
    42   20   57 1
    43   21   22 1
    44   21   44 1
    45   21   45 1
    46   22   46 1
    47   22   47 1
    48   23   24 1
    49   23   48 1
    50   23   49 1
    51   24   25 1
    52   24   50 1
    53   24   51 1
    54   25   26 1
    55   25   52 1
    56   25   53 1
    57   26   27 1
    58   26   54 1
    59   26   55 1
    60   27   56 1
@<TRIPOS>MOLECULE
CHEMBL462273
   69    72     0     0     0
SMALL
USER_CHARGES

@<TRIPOS>ATOM
      1 C1         -0.0264    1.3610   -0.0186 C.ar      1 <0>        -0.1044
      2 C2          1.1561    2.0780   -0.0233 C.ar      1 <0>        -0.1194
      3 C3          2.3703    1.4116   -0.0291 C.ar      1 <0>         0.1020
      4 C4          2.3965    0.0185   -0.0303 C.ar      1 <0>         0.1241
      5 C5          1.2066   -0.6937   -0.0255 C.ar      1 <0>        -0.0922
      6 C6         -0.0011   -0.0211   -0.0197 C.ar      1 <0>        -0.1342
      7 C7         -1.2933   -0.7965   -0.0141 C.3       1 <0>         0.1371
      8 C8         -1.8022   -0.9501   -1.4488 C.3       1 <0>        -0.0420
      9 N1         -3.0618   -1.7060   -1.4432 N.4       1 <0>        -0.5056
     10 C9         -3.5504   -1.8534   -2.8207 C.3       1 <0>        -0.0093
     11 C10        -4.8623   -2.6407   -2.8150 C.3       1 <0>        -0.1456
     12 C11        -5.3712   -2.7943   -4.2497 C.3       1 <0>        -0.1325
     13 C12        -6.6831   -3.5815   -4.2440 C.3       1 <0>         0.1291
     14 N2         -7.1704   -3.7286   -5.6177 N.pl3     1 <0>        -0.7025
     15 C13        -8.3496   -4.4096   -5.8644 C.ar      1 <0>         0.5027
     16 C14        -8.8290   -4.5654   -7.1764 C.ar      1 <0>        -0.1036
     17 C15       -10.0319   -5.2665   -7.3641 C.ar      1 <0>         0.3126
     18 N3        -10.6680   -5.7535   -6.3035 N.ar      1 <0>        -0.5406
     19 C16       -10.1810   -5.5836   -5.0926 C.ar      1 <0>         0.3622
     20 N4         -9.0521   -4.9362   -4.8669 N.ar      1 <0>        -0.5876
     21 N5        -10.2616   -5.2682   -8.7167 N.pl3     1 <0>        -0.4691
     22 C17        -9.2341   -4.5941   -9.3065 C.2       1 <0>         0.2711
     23 N6         -8.3947   -4.1826   -8.4011 N.2       1 <0>        -0.4659
     24 C18       -11.4018   -5.8824   -9.4015 C.3       1 <0>         0.3119
     25 H1        -11.6930   -6.8050   -8.8995 H         1 <0>         0.1245
     26 C19       -12.5920   -4.8989   -9.4522 C.3       1 <0>         0.0801
     27 H2        -12.2407   -3.8699   -9.3764 H         1 <0>         0.0844
     28 C20       -13.2301   -5.1527  -10.8363 C.3       1 <0>         0.0475
     29 H3        -13.1942   -4.2491  -11.4449 H         1 <0>         0.0877
     30 C21       -12.3498   -6.2594  -11.4582 C.3       1 <0>         0.0505
     31 H4        -12.7870   -7.2406  -11.2733 H         1 <0>         0.1015
     32 O1        -11.0767   -6.1434  -10.7843 O.3       1 <0>        -0.3472
     33 C22       -12.1836   -6.0261  -12.9611 C.3       1 <0>         0.0819
     34 O2        -11.4660   -7.1198  -13.5364 O.3       1 <0>        -0.5638
     35 O3        -14.5782   -5.6038  -10.6911 O.3       1 <0>        -0.5386
     36 O4        -13.5240   -5.1866   -8.4078 O.3       1 <0>        -0.5261
     37 O5         -2.2659   -0.0958    0.7639 O.3       1 <0>        -0.5461
     38 N7          3.6219   -0.6610   -0.0366 N.am      1 <0>        -0.6780
     39 C23         3.7486   -1.8284    0.6250 C.2       1 <0>         0.4954
     40 O6          2.7820   -2.3314    1.1580 O.2       1 <0>        -0.5352
     41 O7          3.5339    2.1152   -0.0342 O.3       1 <0>        -0.4925
     42 H5         -0.9723    1.8823   -0.0096 H         1 <0>         0.1288
     43 H6          1.1328    3.1578   -0.0228 H         1 <0>         0.1423
     44 H7          1.2234   -1.7736   -0.0267 H         1 <0>         0.1486
     45 H8         -1.1236   -1.7824    0.4188 H         1 <0>         0.1339
     46 H9         -1.9720    0.0358   -1.8816 H         1 <0>         0.1377
     47 H10        -1.0603   -1.4846   -2.0421 H         1 <0>         0.1443
     48 H11        -2.9047   -2.6186   -1.0426 H         1 <0>         0.4305
     49 H12        -3.7202   -0.8676   -3.2536 H         1 <0>         0.1327
     50 H13        -2.8085   -2.3879   -3.4141 H         1 <0>         0.1331
     51 H14        -4.6925   -3.6266   -2.3822 H         1 <0>         0.0936
     52 H15        -5.6042   -2.1062   -2.2216 H         1 <0>         0.0935
     53 H16        -5.5409   -1.8084   -4.6825 H         1 <0>         0.0819
     54 H17        -4.6293   -3.3288   -4.8431 H         1 <0>         0.0821
     55 H18        -6.5133   -4.5674   -3.8111 H         1 <0>         0.0731
     56 H19        -7.4250   -3.0471   -3.6506 H         1 <0>         0.0731
     57 H20        -6.6665   -3.3487   -6.3543 H         1 <0>         0.4182
     58 H21       -10.7229   -5.9918   -4.2523 H         1 <0>         0.2068
     59 H22        -9.1317   -4.4263  -10.3685 H         1 <0>         0.2249
     60 H23       -13.1657   -5.9502  -13.4279 H         1 <0>         0.0686
     61 H24       -11.6304   -5.1016  -13.1263 H         1 <0>         0.0607
     62 H25       -11.3236   -7.0389  -14.4895 H         1 <0>         0.3881
     63 H26       -15.0270   -5.7785  -11.5297 H         1 <0>         0.3893
     64 H27       -14.2917   -4.5988   -8.3928 H         1 <0>         0.3921
     65 H28        -2.4670    0.7914    0.4359 H         1 <0>         0.3876
     66 H29         4.3791   -0.2913   -0.5172 H         1 <0>         0.4226
     67 H30         4.7107   -2.3160    0.6806 H         1 <0>         0.1551
     68 H31         3.8745    2.3184    0.8477 H         1 <0>         0.3999
     69 H32        -3.7485   -1.2112   -0.8940 H         1 <0>         0.4325
@<TRIPOS>BOND
     1    1    6 ar
     2    1    2 ar
     3    1   42 1
     4    2    3 ar
     5    2   43 1
     6    3    4 ar
     7    3   41 1
     8    4    5 ar
     9    4   38 1
    10    5    6 ar
    11    5   44 1
    12    6    7 1
    13    7    8 1
    14    7   37 1
    15    7   45 1
    16    8    9 1
    17    8   46 1
    18    8   47 1
    19    9   10 1
    20    9   48 1
    21    9   69 1
    22   10   11 1
    23   10   49 1
    24   10   50 1
    25   11   12 1
    26   11   51 1
    27   11   52 1
    28   12   13 1
    29   12   53 1
    30   12   54 1
    31   13   14 1
    32   13   55 1
    33   13   56 1
    34   14   15 1
    35   14   57 1
    36   15   20 ar
    37   15   16 ar
    38   16   23 1
    39   16   17 ar
    40   17   18 ar
    41   17   21 1
    42   18   19 ar
    43   19   20 ar
    44   19   58 1
    45   21   22 1
    46   21   24 1
    47   22   23 2
    48   22   59 1
    49   24   25 1
    50   24   32 1
    51   24   26 1
    52   26   27 1
    53   26   28 1
    54   26   36 1
    55   28   29 1
    56   28   30 1
    57   28   35 1
    58   30   31 1
    59   30   32 1
    60   30   33 1
    61   33   34 1
    62   33   60 1
    63   33   61 1
    64   34   62 1
    65   35   63 1
    66   36   64 1
    67   37   65 1
    68   38   39 am
    69   38   66 1
    70   39   40 2
    71   39   67 1
    72   41   68 1
@<TRIPOS>MOLECULE
CHEMBL462273
   69    72     0     0     0
SMALL
USER_CHARGES

@<TRIPOS>ATOM
      1 C1         -0.0264    1.3610   -0.0186 C.ar      1 <0>        -0.1047
      2 C2          1.1561    2.0780   -0.0233 C.ar      1 <0>        -0.1196
      3 C3          2.3703    1.4116   -0.0291 C.ar      1 <0>         0.1026
      4 C4          2.3965    0.0185   -0.0303 C.ar      1 <0>         0.1233
      5 C5          1.2066   -0.6937   -0.0255 C.ar      1 <0>        -0.0903
      6 C6         -0.0011   -0.0211   -0.0197 C.ar      1 <0>        -0.1342
      7 C7         -1.2933   -0.7965   -0.0141 C.3       1 <0>         0.1381
      8 C8         -1.8527   -0.8451    1.4092 C.3       1 <0>        -0.0421
      9 N1         -3.0469   -1.7001    1.4370 N.4       1 <0>        -0.5058
     10 C9         -3.5840   -1.7468    2.8035 C.3       1 <0>        -0.0093
     11 C10        -4.8278   -2.6373    2.8325 C.3       1 <0>        -0.1454
     12 C11        -5.3872   -2.6859    4.2557 C.3       1 <0>        -0.1326
     13 C12        -6.6310   -3.5764    4.2847 C.3       1 <0>         0.1292
     14 N2         -7.1666   -3.6229    5.6475 N.pl3     1 <0>        -0.7024
     15 C13        -8.2981   -4.3713    5.9211 C.ar      1 <0>         0.5027
     16 C14        -8.8292   -4.4228    7.2213 C.ar      1 <0>        -0.1036
     17 C15        -9.9796   -5.1996    7.4376 C.ar      1 <0>         0.3126
     18 N3        -10.5203   -5.8522    6.4136 N.ar      1 <0>        -0.5407
     19 C16        -9.9884   -5.7743    5.2123 C.ar      1 <0>         0.3622
     20 N4         -8.9109   -5.0536    4.9594 N.ar      1 <0>        -0.5876
     21 N5        -10.2760   -5.0734    8.7712 N.pl3     1 <0>        -0.4691
     22 C17        -9.3370   -4.2535    9.3227 C.2       1 <0>         0.2710
     23 N6         -8.4891   -3.8729    8.4117 N.2       1 <0>        -0.4658
     24 C18       -11.3965   -5.7039    9.4736 C.3       1 <0>         0.3119
     25 H1        -12.2717   -5.7503    8.8256 H         1 <0>         0.1245
     26 C19       -11.0042   -7.1201    9.9499 C.3       1 <0>         0.0801
     27 H2         -9.9227   -7.2003   10.0592 H         1 <0>         0.0844
     28 C20       -11.6990   -7.2603   11.3228 C.3       1 <0>         0.0475
     29 H3        -10.9609   -7.4099   12.1109 H         1 <0>         0.0877
     30 C21       -12.4288   -5.9123   11.5136 C.3       1 <0>         0.0505
     31 H4        -13.4636   -5.9905   11.1801 H         1 <0>         0.1015
     32 O1        -11.7044   -4.9773   10.6832 O.3       1 <0>        -0.3472
     33 C22       -12.3743   -5.4799   12.9802 C.3       1 <0>         0.0819
     34 O2        -13.1519   -4.2941   13.1565 O.3       1 <0>        -0.5638
     35 O3        -12.6341   -8.3407   11.3027 O.3       1 <0>        -0.5386
     36 O4        -11.4886   -8.1073    9.0373 O.3       1 <0>        -0.5260
     37 O5         -2.2369   -0.1560   -0.8751 O.3       1 <0>        -0.5461
     38 N7          3.6219   -0.6610   -0.0366 N.am      1 <0>        -0.6764
     39 C23         3.7486   -1.8284    0.6250 C.2       1 <0>         0.4985
     40 O6          2.7820   -2.3314    1.1580 O.2       1 <0>        -0.5422
     41 O7          3.5339    2.1152   -0.0342 O.3       1 <0>        -0.4910
     42 H5         -0.9723    1.8823   -0.0096 H         1 <0>         0.1287
     43 H6          1.1328    3.1578   -0.0228 H         1 <0>         0.1426
     44 H7          1.2234   -1.7736   -0.0267 H         1 <0>         0.1490
     45 H8         -1.1097   -1.8112   -0.3671 H         1 <0>         0.1317
     46 H9         -1.0984   -1.2525    2.0823 H         1 <0>         0.1457
     47 H10        -2.1194    0.1621    1.7294 H         1 <0>         0.1372
     48 H11        -3.7452   -1.3229    0.8139 H         1 <0>         0.4325
     49 H12        -2.8297   -2.1542    3.4766 H         1 <0>         0.1334
     50 H13        -3.8507   -0.7396    3.1237 H         1 <0>         0.1326
     51 H14        -5.5821   -2.2298    2.1593 H         1 <0>         0.0935
     52 H15        -4.5611   -3.6445    2.5123 H         1 <0>         0.0934
     53 H16        -4.6329   -3.0933    4.9289 H         1 <0>         0.0821
     54 H17        -5.6539   -1.6787    4.5759 H         1 <0>         0.0820
     55 H18        -7.3853   -3.1689    3.6116 H         1 <0>         0.0731
     56 H19        -6.3643   -4.5836    3.9645 H         1 <0>         0.0731
     57 H20        -6.7282   -3.1292    6.3581 H         1 <0>         0.4182
     58 H21       -10.4524   -6.3173    4.4022 H         1 <0>         0.2067
     59 H22        -9.3019   -3.9626   10.3622 H         1 <0>         0.2249
     60 H23       -12.7763   -6.2748   13.6085 H         1 <0>         0.0685
     61 H24       -11.3402   -5.2817   13.2623 H         1 <0>         0.0607
     62 H25       -13.1625   -3.9621   14.0647 H         1 <0>         0.3881
     63 H26       -13.0994   -8.4738   12.1399 H         1 <0>         0.3893
     64 H27       -11.2704   -9.0154    9.2880 H         1 <0>         0.3921
     65 H28        -2.4483    0.7526   -0.6204 H         1 <0>         0.3885
     66 H29         4.3791   -0.2913   -0.5172 H         1 <0>         0.4235
     67 H30         4.7107   -2.3160    0.6806 H         1 <0>         0.1549
     68 H31         3.8745    2.3184    0.8477 H         1 <0>         0.3984
     69 H32        -2.8000   -2.6324    1.1406 H         1 <0>         0.4302
@<TRIPOS>BOND
     1    1    6 ar
     2    1    2 ar
     3    1   42 1
     4    2    3 ar
     5    2   43 1
     6    3    4 ar
     7    3   41 1
     8    4    5 ar
     9    4   38 1
    10    5    6 ar
    11    5   44 1
    12    6    7 1
    13    7    8 1
    14    7   37 1
    15    7   45 1
    16    8    9 1
    17    8   46 1
    18    8   47 1
    19    9   10 1
    20    9   48 1
    21    9   69 1
    22   10   11 1
    23   10   49 1
    24   10   50 1
    25   11   12 1
    26   11   51 1
    27   11   52 1
    28   12   13 1
    29   12   53 1
    30   12   54 1
    31   13   14 1
    32   13   55 1
    33   13   56 1
    34   14   15 1
    35   14   57 1
    36   15   20 ar
    37   15   16 ar
    38   16   23 1
    39   16   17 ar
    40   17   18 ar
    41   17   21 1
    42   18   19 ar
    43   19   20 ar
    44   19   58 1
    45   21   22 1
    46   21   24 1
    47   22   23 2
    48   22   59 1
    49   24   25 1
    50   24   32 1
    51   24   26 1
    52   26   27 1
    53   26   28 1
    54   26   36 1
    55   28   29 1
    56   28   30 1
    57   28   35 1
    58   30   31 1
    59   30   32 1
    60   30   33 1
    61   33   34 1
    62   33   60 1
    63   33   61 1
    64   34   62 1
    65   35   63 1
    66   36   64 1
    67   37   65 1
    68   38   39 am
    69   38   66 1
    70   39   40 2
    71   39   67 1
    72   41   68 1
@<TRIPOS>MOLECULE
CHEMBL1083363
   69    75     0     0     0
SMALL
USER_CHARGES

@<TRIPOS>ATOM
      1 C1         -0.0166    1.3740    0.0096 C.ar      1 <0>        -0.1469
      2 C2          1.1714    2.0887    0.0021 C.ar      1 <0>        -0.0827
      3 C3          2.3836    1.4330   -0.0130 C.ar      1 <0>        -0.1383
      4 C4          2.4231    0.0421   -0.0214 C.ar      1 <0>         0.1336
      5 C5          1.2202   -0.6796   -0.0138 C.ar      1 <0>        -0.0920
      6 C6          0.0021   -0.0041    0.0020 C.ar      1 <0>        -0.0604
      7 C7          1.5889   -2.1068   -0.0256 C.ar      1 <0>        -0.1300
      8 C8          2.9901   -2.1563   -0.0395 C.ar      1 <0>         0.1818
      9 N1          3.4726   -0.8597   -0.0368 N.pl3     1 <0>        -0.6123
     10 H1          4.4118   -0.6174   -0.0448 H         1 <0>         0.4225
     11 C9          3.6293   -3.3927   -0.0533 C.ar      1 <0>        -0.1715
     12 C10         2.8884   -4.5554   -0.0536 C.ar      1 <0>        -0.0441
     13 C11         1.5040   -4.5098   -0.0403 C.ar      1 <0>        -0.2456
     14 C12         0.8481   -3.2912   -0.0258 C.ar      1 <0>         0.1795
     15 O1         -0.5096   -3.2469   -0.0123 O.3       1 <0>        -0.2955
     16 C13        -1.1995   -4.4984   -0.0135 C.3       1 <0>         0.0290
     17 C14        -2.7089   -4.2486    0.0028 C.3       1 <0>         0.0852
     18 C15        -3.4455   -5.5839    0.1273 C.3       1 <0>        -0.0432
     19 N2         -4.8947   -5.3441    0.1428 N.4       1 <0>        -0.3794
     20 C16        -5.2500   -4.5814    1.3456 C.3       1 <0>        -0.0045
     21 C17        -6.7457   -4.2589    1.3263 C.3       1 <0>        -0.1647
     22 C18        -7.5437   -5.5656    1.2943 C.3       1 <0>         0.1182
     23 C19        -7.1112   -6.3867    0.0760 C.3       1 <0>        -0.1673
     24 C20        -5.6019   -6.6303    0.1417 C.3       1 <0>         0.0026
     25 N3         -8.9741   -5.2640    1.1990 N.am      1 <0>        -0.5583
     26 C21        -9.4213   -4.5724    0.1336 C.2       1 <0>         0.5835
     27 O2         -8.6391   -4.2118   -0.7250 O.2       1 <0>        -0.5016
     28 C22       -10.8501   -4.2514    0.0023 C.ar      1 <0>        -0.1791
     29 C23       -11.3537   -3.5417   -1.0778 C.ar      1 <0>         0.0077
     30 C24       -12.7129   -3.2621   -1.1570 C.ar      1 <0>        -0.1441
     31 C25       -13.5849   -3.6704   -0.1890 C.ar      1 <0>        -0.0337
     32 C26       -13.1152   -4.3922    0.9222 C.ar      1 <0>        -0.0805
     33 C27       -11.7379   -4.6823    1.0142 C.ar      1 <0>         0.0135
     34 C28       -11.2346   -5.4057    2.1191 C.ar      1 <0>        -0.1764
     35 C29       -12.1139   -5.8242    3.1069 C.ar      1 <0>         0.0078
     36 C30       -13.4690   -5.5325    3.0046 C.ar      1 <0>        -0.1416
     37 C31       -13.9727   -4.8349    1.9445 C.ar      1 <0>        -0.0357
     38 C32        -9.7938   -5.6932    2.1773 C.2       1 <0>         0.5763
     39 O3         -9.3393   -6.3183    3.1162 O.2       1 <0>        -0.4883
     40 O4         -3.0977   -3.6015   -1.2105 O.3       1 <0>        -0.5411
     41 H2         -0.9602    1.8991    0.0259 H         1 <0>         0.1273
     42 H3          1.1468    3.1684    0.0078 H         1 <0>         0.1318
     43 H4          3.3033    1.9990   -0.0188 H         1 <0>         0.1269
     44 H5         -0.9248   -0.5584    0.0079 H         1 <0>         0.1253
     45 H6          4.7082   -3.4413   -0.0642 H         1 <0>         0.1303
     46 H7          3.3921   -5.5107   -0.0647 H         1 <0>         0.1351
     47 H8          0.9349   -5.4277   -0.0410 H         1 <0>         0.1280
     48 H9         -0.9336   -5.0590   -0.9096 H         1 <0>         0.0784
     49 H10        -0.9163   -5.0702    0.8702 H         1 <0>         0.0829
     50 H11        -2.9629   -3.6131    0.8511 H         1 <0>         0.1343
     51 H12        -3.1914   -6.2194   -0.7210 H         1 <0>         0.1405
     52 H13        -3.1489   -6.0775    1.0527 H         1 <0>         0.1457
     53 H14        -5.0175   -5.1720    2.2317 H         1 <0>         0.1336
     54 H15        -4.6790   -3.6532    1.3686 H         1 <0>         0.1388
     55 H16        -7.0079   -3.6942    2.2209 H         1 <0>         0.1156
     56 H17        -6.9793   -3.6681    0.4406 H         1 <0>         0.1143
     57 H18        -7.3496   -6.1336    2.2041 H         1 <0>         0.1284
     58 H19        -7.6346   -7.3428    0.0771 H         1 <0>         0.1157
     59 H20        -7.3524   -5.8400   -0.8356 H         1 <0>         0.1146
     60 H21        -5.2907   -7.2147   -0.7242 H         1 <0>         0.1376
     61 H22        -5.3619   -7.1772    1.0534 H         1 <0>         0.1332
     62 H23       -10.6880   -3.2052   -1.8589 H         1 <0>         0.1470
     63 H24       -13.0883   -2.7080   -2.0047 H         1 <0>         0.1442
     64 H25       -14.6361   -3.4384   -0.2768 H         1 <0>         0.1463
     65 H26       -11.7447   -6.3783    3.9573 H         1 <0>         0.1481
     66 H27       -14.1399   -5.8658    3.7826 H         1 <0>         0.1449
     67 H28       -15.0303   -4.6224    1.8916 H         1 <0>         0.1465
     68 H29        -2.9014   -4.1111   -2.0085 H         1 <0>         0.3899
     69 H30        -5.1561   -4.8169   -0.6768 H         1 <0>         0.4319
@<TRIPOS>BOND
     1    1    6 ar
     2    1    2 ar
     3    1   41 1
     4    2    3 ar
     5    2   42 1
     6    3    4 ar
     7    3   43 1
     8    4    9 1
     9    4    5 ar
    10    5    6 ar
    11    5    7 1
    12    6   44 1
    13    7   14 ar
    14    7    8 ar
    15    8    9 1
    16    8   11 ar
    17    9   10 1
    18   11   12 ar
    19   11   45 1
    20   12   13 ar
    21   12   46 1
    22   13   14 ar
    23   13   47 1
    24   14   15 1
    25   15   16 1
    26   16   17 1
    27   16   48 1
    28   16   49 1
    29   17   18 1
    30   17   40 1
    31   17   50 1
    32   18   19 1
    33   18   51 1
    34   18   52 1
    35   19   24 1
    36   19   20 1
    37   19   69 1
    38   20   21 1
    39   20   53 1
    40   20   54 1
    41   21   22 1
    42   21   55 1
    43   21   56 1
    44   22   23 1
    45   22   25 1
    46   22   57 1
    47   23   24 1
    48   23   58 1
    49   23   59 1
    50   24   60 1
    51   24   61 1
    52   25   38 am
    53   25   26 am
    54   26   27 2
    55   26   28 1
    56   28   33 ar
    57   28   29 ar
    58   29   30 ar
    59   29   62 1
    60   30   31 ar
    61   30   63 1
    62   31   32 ar
    63   31   64 1
    64   32   37 ar
    65   32   33 ar
    66   33   34 ar
    67   34   35 ar
    68   34   38 1
    69   35   36 ar
    70   35   65 1
    71   36   37 ar
    72   36   66 1
    73   37   67 1
    74   38   39 2
    75   40   68 1
@<TRIPOS>MOLECULE
CHEMBL1083363
   69    75     0     0     0
SMALL
USER_CHARGES

@<TRIPOS>ATOM
      1 C1         -1.3614   -9.0235   -6.7564 C.ar      1 <0>        -0.1469
      2 C2         -0.3595   -9.6540   -7.4782 C.ar      1 <0>        -0.0827
      3 C3          0.9008   -9.8066   -6.9416 C.ar      1 <0>        -0.1383
      4 C4          1.1772   -9.3266   -5.6650 C.ar      1 <0>         0.1336
      5 C5          0.1625   -8.6889   -4.9360 C.ar      1 <0>        -0.0920
      6 C6         -1.1068   -8.5410   -5.4907 C.ar      1 <0>        -0.0603
      7 C7          0.7567   -8.3007   -3.6441 C.ar      1 <0>        -0.1300
      8 C8          2.0917   -8.7284   -3.6750 C.ar      1 <0>         0.1818
      9 N1          2.3256   -9.3407   -4.8932 N.pl3     1 <0>        -0.6122
     10 H1          3.1731   -9.7252   -5.1670 H         1 <0>         0.4225
     11 C9          2.9091   -8.4941   -2.5730 C.ar      1 <0>        -0.1715
     12 C10         2.4072   -7.8477   -1.4633 C.ar      1 <0>        -0.0441
     13 C11         1.0887   -7.4244   -1.4297 C.ar      1 <0>        -0.2456
     14 C12         0.2587   -7.6465   -2.5147 C.ar      1 <0>         0.1795
     15 O1         -1.0342   -7.2308   -2.4813 O.3       1 <0>        -0.2955
     16 C13        -1.4725   -6.5691   -1.2930 C.3       1 <0>         0.0290
     17 C14        -2.9443   -6.1779   -1.4404 C.3       1 <0>         0.0853
     18 C15        -3.4479   -5.5823   -0.1242 C.3       1 <0>        -0.0432
     19 N2         -4.8651   -5.2205   -0.2609 N.4       1 <0>        -0.3796
     20 C16        -5.3059   -4.5105    0.9457 C.3       1 <0>         0.0024
     21 C17        -6.7584   -4.0602    0.7752 C.3       1 <0>        -0.1664
     22 C18        -7.6449   -5.2887    0.5513 C.3       1 <0>         0.1183
     23 C19        -7.1304   -6.0624   -0.6660 C.3       1 <0>        -0.1658
     24 C20        -5.6641   -6.4384   -0.4420 C.3       1 <0>        -0.0041
     25 N3         -9.0251   -4.8598    0.3117 N.am      1 <0>        -0.5584
     26 C21        -9.2827   -4.0642   -0.7438 C.2       1 <0>         0.5834
     27 O2         -8.3752   -3.7167   -1.4749 O.2       1 <0>        -0.5015
     28 C22       -10.6553   -3.6138   -1.0175 C.ar      1 <0>        -0.1791
     29 C23       -10.9655   -2.7943   -2.0927 C.ar      1 <0>         0.0077
     30 C24       -12.2789   -2.3945   -2.3098 C.ar      1 <0>        -0.1441
     31 C25       -13.2926   -2.7889   -1.4844 C.ar      1 <0>        -0.0337
     32 C26       -13.0206   -3.6195   -0.3833 C.ar      1 <0>        -0.0805
     33 C27       -11.6917   -4.0322   -0.1523 C.ar      1 <0>         0.0135
     34 C28       -11.3859   -4.8669    0.9465 C.ar      1 <0>        -0.1764
     35 C29       -12.4099   -5.2721    1.7899 C.ar      1 <0>         0.0078
     36 C30       -13.7155   -4.8590    1.5513 C.ar      1 <0>        -0.1416
     37 C31       -14.0292   -4.0529    0.4949 C.ar      1 <0>        -0.0357
     38 C32        -9.9898   -5.2801    1.1518 C.2       1 <0>         0.5764
     39 O3         -9.7042   -6.0020    2.0878 O.2       1 <0>        -0.4883
     40 O4         -3.0778   -5.2101   -2.4832 O.3       1 <0>        -0.5410
     41 H2         -2.3438   -8.9060   -7.1894 H         1 <0>         0.1274
     42 H3         -0.5685  -10.0292   -8.4691 H         1 <0>         0.1318
     43 H4          1.6742  -10.2992   -7.5121 H         1 <0>         0.1269
     44 H5         -1.8889   -8.0502   -4.9306 H         1 <0>         0.1253
     45 H6          3.9387   -8.8197   -2.5870 H         1 <0>         0.1303
     46 H7          3.0480   -7.6701   -0.6123 H         1 <0>         0.1351
     47 H8          0.7074   -6.9194   -0.5544 H         1 <0>         0.1280
     48 H9         -1.3582   -7.2391   -0.4409 H         1 <0>         0.0828
     49 H10        -0.8726   -5.6731   -1.1338 H         1 <0>         0.0785
     50 H11        -3.5322   -7.0619   -1.6877 H         1 <0>         0.1341
     51 H12        -3.3357   -6.3167    0.6735 H         1 <0>         0.1457
     52 H13        -2.8673   -4.6920    0.1174 H         1 <0>         0.1405
     53 H14        -5.2308   -5.1756    1.8060 H         1 <0>         0.1333
     54 H15        -4.6720   -3.6382    1.1054 H         1 <0>         0.1376
     55 H16        -7.0844   -3.5348    1.6728 H         1 <0>         0.1159
     56 H17        -6.8346   -3.3948   -0.0848 H         1 <0>         0.1135
     57 H18        -7.6090   -5.9296    1.4323 H         1 <0>         0.1284
     58 H19        -7.7223   -6.9681   -0.7985 H         1 <0>         0.1155
     59 H20        -7.2143   -5.4385   -1.5558 H         1 <0>         0.1155
     60 H21        -5.2947   -6.9896   -1.3068 H         1 <0>         0.1384
     61 H22        -5.5813   -7.0624    0.4478 H         1 <0>         0.1336
     62 H23       -10.1847   -2.4659   -2.7627 H         1 <0>         0.1470
     63 H24       -12.5030   -1.7561   -3.1515 H         1 <0>         0.1442
     64 H25       -14.3038   -2.4623   -1.6774 H         1 <0>         0.1463
     65 H26       -12.1924   -5.9102    2.6336 H         1 <0>         0.1481
     66 H27       -14.5009   -5.1837    2.2178 H         1 <0>         0.1449
     67 H28       -15.0525   -3.7474    0.3343 H         1 <0>         0.1465
     68 H29        -2.5800   -4.3954   -2.3297 H         1 <0>         0.3899
     69 H30        -4.9820   -4.6203   -1.0635 H         1 <0>         0.4320
@<TRIPOS>BOND
     1    1    6 ar
     2    1    2 ar
     3    1   41 1
     4    2    3 ar
     5    2   42 1
     6    3    4 ar
     7    3   43 1
     8    4    9 1
     9    4    5 ar
    10    5    6 ar
    11    5    7 1
    12    6   44 1
    13    7   14 ar
    14    7    8 ar
    15    8    9 1
    16    8   11 ar
    17    9   10 1
    18   11   12 ar
    19   11   45 1
    20   12   13 ar
    21   12   46 1
    22   13   14 ar
    23   13   47 1
    24   14   15 1
    25   15   16 1
    26   16   17 1
    27   16   48 1
    28   16   49 1
    29   17   18 1
    30   17   40 1
    31   17   50 1
    32   18   19 1
    33   18   51 1
    34   18   52 1
    35   19   24 1
    36   19   20 1
    37   19   69 1
    38   20   21 1
    39   20   53 1
    40   20   54 1
    41   21   22 1
    42   21   55 1
    43   21   56 1
    44   22   23 1
    45   22   25 1
    46   22   57 1
    47   23   24 1
    48   23   58 1
    49   23   59 1
    50   24   60 1
    51   24   61 1
    52   25   38 am
    53   25   26 am
    54   26   27 2
    55   26   28 1
    56   28   33 ar
    57   28   29 ar
    58   29   30 ar
    59   29   62 1
    60   30   31 ar
    61   30   63 1
    62   31   32 ar
    63   31   64 1
    64   32   37 ar
    65   32   33 ar
    66   33   34 ar
    67   34   35 ar
    68   34   38 1
    69   35   36 ar
    70   35   65 1
    71   36   37 ar
    72   36   66 1
    73   37   67 1
    74   38   39 2
    75   40   68 1
@<TRIPOS>MOLECULE
CHEMBL83753
   83    86     0     0     0
SMALL
USER_CHARGES

@<TRIPOS>ATOM
      1 C1         -0.0187    1.5258    0.0104 C.3       1 <0>        -0.1543
      2 C2          0.0021   -0.0041    0.0020 C.3       1 <0>        -0.1258
      3 C3          0.7421   -0.5109    1.2415 C.3       1 <0>        -0.1217
      4 C4          0.7628   -2.0407    1.2331 C.3       1 <0>        -0.1205
      5 C5          1.5028   -2.5476    2.4727 C.3       1 <0>        -0.1196
      6 C6          1.5236   -4.0774    2.4642 C.3       1 <0>        -0.1160
      7 C7          2.2636   -4.5842    3.7038 C.3       1 <0>        -0.1378
      8 C8          2.2843   -6.1141    3.6954 C.3       1 <0>         0.1317
      9 N1          2.9929   -6.5994    4.8822 N.am      1 <0>        -0.5344
     10 C9          4.3544   -6.8473    4.9736 C.2       1 <0>         0.0059
     11 C10         4.6105   -7.2739    6.2057 C.2       1 <0>        -0.0201
     12 N2          3.4122   -7.2998    6.9058 N.am      1 <0>        -0.4783
     13 C11         2.4366   -6.8774    6.0777 C.2       1 <0>         0.6533
     14 O1          1.2569   -6.7685    6.3598 O.2       1 <0>        -0.5501
     15 C12         3.2469   -7.6911    8.2409 C.ar      1 <0>         0.1994
     16 C13         1.9846   -7.6752    8.8193 C.ar      1 <0>        -0.1658
     17 C14         1.8249   -8.0615   10.1357 C.ar      1 <0>         0.0038
     18 C15         2.9204   -8.4638   10.8775 C.ar      1 <0>        -0.6361
     19 C16         4.1787   -8.4807   10.3043 C.ar      1 <0>         0.0021
     20 C17         4.3440   -8.1011    8.9867 C.ar      1 <0>        -0.1673
     21 S1          2.7125   -8.9554   12.5567 S.o2      1 <0>         2.6118
     22 O2          3.9687   -8.7666   13.1936 O.2       1 <0>        -1.0255
     23 O3          1.5228   -8.3305   13.0185 O.2       1 <0>        -1.0267
     24 N3          2.4218  -10.5856   12.5573 N.2       1 <0>        -1.0823
     25 C18         2.2156  -11.2578   13.7642 C.ar      1 <0>         0.2968
     26 C19         2.2483  -10.5593   14.9644 C.ar      1 <0>        -0.2652
     27 C20         2.0435  -11.2270   16.1559 C.ar      1 <0>        -0.0475
     28 C21         1.8065  -12.5894   16.1550 C.ar      1 <0>        -0.2371
     29 C22         1.7733  -13.2878   14.9619 C.ar      1 <0>        -0.0636
     30 C23         1.9716  -12.6254   13.7664 C.ar      1 <0>        -0.1812
     31 C24         1.5845  -13.3147   17.4572 C.3       1 <0>        -0.0707
     32 C25         0.0919  -13.3136   17.7935 C.3       1 <0>        -0.0113
     33 N4         -0.1246  -14.0206   19.0628 N.4       1 <0>        -0.5054
     34 C26        -1.5576  -14.0195   19.3858 C.3       1 <0>        -0.0427
     35 C27        -1.7830  -14.7559   20.7078 C.3       1 <0>         0.1404
     36 H1         -1.2312  -14.2535   21.5023 H         1 <0>         0.1328
     37 C28        -3.2532  -14.7548   21.0391 C.ar      1 <0>        -0.1951
     38 C29        -3.7850  -13.7799   21.8698 C.ar      1 <0>        -0.0552
     39 C30        -5.1427  -13.8183   22.1470 C.ar      1 <0>        -0.1653
     40 C31        -5.9158  -14.8198   21.5903 C.ar      1 <0>         0.1186
     41 N5         -5.3758  -15.7309   20.8049 N.ar      1 <0>        -0.4762
     42 C32        -4.0893  -15.7217   20.5145 C.ar      1 <0>         0.1168
     43 O4         -1.3231  -16.1034   20.5869 O.3       1 <0>        -0.5469
     44 H2          1.0039    1.9031    0.0027 H         1 <0>         0.0532
     45 H3         -0.5459    1.8868   -0.8726 H         1 <0>         0.0533
     46 H4         -0.5289    1.8773    0.9072 H         1 <0>         0.0534
     47 H5         -1.0205   -0.3814    0.0098 H         1 <0>         0.0604
     48 H6          0.5123   -0.3556   -0.8948 H         1 <0>         0.0602
     49 H7          1.7647   -0.1336    1.2338 H         1 <0>         0.0606
     50 H8          0.2319   -0.1594    2.1383 H         1 <0>         0.0610
     51 H9         -0.2598   -2.4180    1.2409 H         1 <0>         0.0616
     52 H10         1.2730   -2.3923    0.3363 H         1 <0>         0.0612
     53 H11         2.5254   -2.1703    2.4649 H         1 <0>         0.0616
     54 H12         0.9926   -2.1961    3.3695 H         1 <0>         0.0622
     55 H13         0.5010   -4.4547    2.4720 H         1 <0>         0.0660
     56 H14         2.0337   -4.4289    1.5675 H         1 <0>         0.0652
     57 H15         3.2861   -4.2070    3.6960 H         1 <0>         0.0687
     58 H16         1.7534   -4.2327    4.6006 H         1 <0>         0.0697
     59 H17         1.2617   -6.4914    3.7031 H         1 <0>         0.0920
     60 H18         2.7945   -6.4656    2.7986 H         1 <0>         0.0918
     61 H19         5.0785   -6.7167    4.1830 H         1 <0>         0.1875
     62 H20         5.5794   -7.5519    6.5936 H         1 <0>         0.1865
     63 H21         1.1287   -7.3607    8.2406 H         1 <0>         0.1593
     64 H22         0.8434   -8.0490   10.5863 H         1 <0>         0.1432
     65 H23         5.0324   -8.7951   10.8863 H         1 <0>         0.1446
     66 H24         5.3264   -8.1188    8.5382 H         1 <0>         0.1346
     67 H25         2.4340   -9.4954   14.9659 H         1 <0>         0.1015
     68 H26         2.0688  -10.6845   17.0894 H         1 <0>         0.1014
     69 H27         1.5879  -14.3518   14.9647 H         1 <0>         0.1043
     70 H28         1.9410  -13.1706   12.8347 H         1 <0>         0.1167
     71 H29         1.9353  -14.3426   17.3649 H         1 <0>         0.0805
     72 H30         2.1363  -12.8123   18.2516 H         1 <0>         0.0794
     73 H31        -0.2590  -12.2857   17.8857 H         1 <0>         0.1304
     74 H32        -0.4600  -13.8160   16.9991 H         1 <0>         0.1307
     75 H33         0.2002  -14.9721   18.9775 H         1 <0>         0.4291
     76 H34        -1.9085  -12.9916   19.4780 H         1 <0>         0.1429
     77 H35        -2.1095  -14.5219   18.5913 H         1 <0>         0.1361
     78 H36        -3.1562  -13.0094   22.2909 H         1 <0>         0.1413
     79 H37        -5.5907  -13.0753   22.7902 H         1 <0>         0.1455
     80 H38        -6.9743  -14.8567   21.8014 H         1 <0>         0.1651
     81 H39        -3.6838  -16.4816   19.8629 H         1 <0>         0.1538
     82 H40        -1.7714  -16.6117   19.8972 H         1 <0>         0.3893
     83 H41         0.3863  -13.5555   19.7983 H         1 <0>         0.4263
@<TRIPOS>BOND
     1    1    2 1
     2    1   44 1
     3    1   45 1
     4    1   46 1
     5    2    3 1
     6    2   47 1
     7    2   48 1
     8    3    4 1
     9    3   49 1
    10    3   50 1
    11    4    5 1
    12    4   51 1
    13    4   52 1
    14    5    6 1
    15    5   53 1
    16    5   54 1
    17    6    7 1
    18    6   55 1
    19    6   56 1
    20    7    8 1
    21    7   57 1
    22    7   58 1
    23    8    9 1
    24    8   59 1
    25    8   60 1
    26    9   13 am
    27    9   10 1
    28   10   11 2
    29   10   61 1
    30   11   12 1
    31   11   62 1
    32   12   13 am
    33   12   15 1
    34   13   14 2
    35   15   20 ar
    36   15   16 ar
    37   16   17 ar
    38   16   63 1
    39   17   18 ar
    40   17   64 1
    41   18   19 ar
    42   18   21 1
    43   19   20 ar
    44   19   65 1
    45   20   66 1
    46   21   22 2
    47   21   23 2
    48   21   24 1
    49   24   25 1
    50   25   30 ar
    51   25   26 ar
    52   26   27 ar
    53   26   67 1
    54   27   28 ar
    55   27   68 1
    56   28   29 ar
    57   28   31 1
    58   29   30 ar
    59   29   69 1
    60   30   70 1
    61   31   32 1
    62   31   71 1
    63   31   72 1
    64   32   33 1
    65   32   73 1
    66   32   74 1
    67   33   34 1
    68   33   75 1
    69   33   83 1
    70   34   35 1
    71   34   76 1
    72   34   77 1
    73   35   36 1
    74   35   37 1
    75   35   43 1
    76   37   42 ar
    77   37   38 ar
    78   38   39 ar
    79   38   78 1
    80   39   40 ar
    81   39   79 1
    82   40   41 ar
    83   40   80 1
    84   41   42 ar
    85   42   81 1
    86   43   82 1
@<TRIPOS>MOLECULE
CHEMBL83753
   84    87     0     0     0
SMALL
USER_CHARGES

@<TRIPOS>ATOM
      1 C1         -6.7226   -6.4441   -4.0699 C.3       1 <0>        -0.1552
      2 C2         -5.8163   -7.6372   -3.7600 C.3       1 <0>        -0.1256
      3 C3         -4.6575   -7.6703   -4.7585 C.3       1 <0>        -0.1220
      4 C4         -3.7513   -8.8634   -4.4486 C.3       1 <0>        -0.1203
      5 C5         -2.5925   -8.8966   -5.4471 C.3       1 <0>        -0.1199
      6 C6         -1.6862  -10.0897   -5.1373 C.3       1 <0>        -0.1159
      7 C7         -0.5274  -10.1228   -6.1358 C.3       1 <0>        -0.1384
      8 C8          0.3789  -11.3159   -5.8259 C.3       1 <0>         0.1303
      9 N1          1.4884  -11.3476   -6.7820 N.am      1 <0>        -0.5321
     10 C9          1.4922  -12.0032   -8.0042 C.2       1 <0>         0.0230
     11 C10         2.6740  -11.7965   -8.5754 C.2       1 <0>        -0.0312
     12 N2          3.4295  -11.0076   -7.7189 N.am      1 <0>        -0.4825
     13 C11         2.6817  -10.7402   -6.6302 C.2       1 <0>         0.6563
     14 O1          3.0255  -10.0686   -5.6742 O.2       1 <0>        -0.5519
     15 C12         4.7381  -10.5627   -7.9486 C.ar      1 <0>         0.2285
     16 C13         5.3832   -9.7800   -7.0003 C.ar      1 <0>        -0.1680
     17 C14         6.6732   -9.3430   -7.2296 C.ar      1 <0>         0.0110
     18 C15         7.3222   -9.6841   -8.4021 C.ar      1 <0>        -0.6985
     19 C16         6.6824  -10.4635   -9.3483 C.ar      1 <0>         0.0124
     20 C17         5.3945  -10.9084   -9.1223 C.ar      1 <0>        -0.1654
     21 S1          8.9677   -9.1241   -8.6911 S.o2      1 <0>         2.6898
     22 O2          9.1135   -9.0016  -10.0993 O.2       1 <0>        -0.9427
     23 O3          9.1877   -8.0354   -7.8049 O.2       1 <0>        -0.9454
     24 N3          9.9887  -10.3372   -8.2133 N.pl3     1 <0>        -1.0683
     25 C18        10.0147  -10.7423   -6.8769 C.ar      1 <0>         0.1439
     26 C19        10.6369   -9.9492   -5.9210 C.ar      1 <0>        -0.1005
     27 C20        10.6604  -10.3525   -4.6004 C.ar      1 <0>        -0.0984
     28 C21        10.0658  -11.5446   -4.2292 C.ar      1 <0>        -0.1013
     29 C22         9.4456  -12.3365   -5.1782 C.ar      1 <0>        -0.1009
     30 C23         9.4135  -11.9364   -6.4996 C.ar      1 <0>        -0.1066
     31 C24        10.0943  -11.9819   -2.7873 C.3       1 <0>        -0.1015
     32 C25         8.8608  -11.4368   -2.0646 C.3       1 <0>        -0.0095
     33 N4          8.8885  -11.8630   -0.6591 N.4       1 <0>        -0.5050
     34 C26         7.7043  -11.3396    0.0348 C.3       1 <0>        -0.0435
     35 C27         7.7331  -11.7836    1.4987 C.3       1 <0>         0.1419
     36 H1          8.6340  -11.3994    1.9772 H         1 <0>         0.1343
     37 C28         6.5182  -11.2467    2.2105 C.ar      1 <0>        -0.2005
     38 C29         6.5865  -10.0529    2.9129 C.ar      1 <0>        -0.0544
     39 C30         5.4439   -9.5975    3.5524 C.ar      1 <0>        -0.1639
     40 C31         4.2829  -10.3430    3.4693 C.ar      1 <0>         0.1226
     41 N5          4.2549  -11.4743    2.7925 N.ar      1 <0>        -0.4749
     42 C32         5.3207  -11.9348    2.1669 C.ar      1 <0>         0.1174
     43 O4          7.7311  -13.2111    1.5636 O.3       1 <0>        -0.5461
     44 H2         -6.1481   -5.5212   -3.9905 H         1 <0>         0.0534
     45 H3         -7.1172   -6.5406   -5.0813 H         1 <0>         0.0540
     46 H4         -7.5482   -6.4205   -3.3585 H         1 <0>         0.0547
     47 H5         -5.4217   -7.5407   -2.7485 H         1 <0>         0.0600
     48 H6         -6.3908   -8.5601   -3.8394 H         1 <0>         0.0608
     49 H7         -5.0522   -7.7668   -5.7700 H         1 <0>         0.0615
     50 H8         -4.0831   -6.7474   -4.6792 H         1 <0>         0.0607
     51 H9         -3.3567   -8.7669   -3.4372 H         1 <0>         0.0610
     52 H10        -4.3258   -9.7863   -4.5280 H         1 <0>         0.0622
     53 H11        -2.9871   -8.9931   -6.4586 H         1 <0>         0.0630
     54 H12        -2.0180   -7.9736   -5.3678 H         1 <0>         0.0617
     55 H13        -1.2916   -9.9932   -4.1258 H         1 <0>         0.0651
     56 H14        -2.2607  -11.0126   -5.2166 H         1 <0>         0.0668
     57 H15        -0.9220  -10.2193   -7.1472 H         1 <0>         0.0708
     58 H16         0.0471   -9.1999   -6.0564 H         1 <0>         0.0691
     59 H17         0.7735  -11.2194   -4.8144 H         1 <0>         0.0921
     60 H18        -0.1956  -12.2388   -5.9053 H         1 <0>         0.0957
     61 H19         0.6783  -12.5797   -8.4185 H         1 <0>         0.1923
     62 H20         2.9908  -12.1758   -9.5357 H         1 <0>         0.1899
     63 H21         4.8767   -9.5129   -6.0846 H         1 <0>         0.1632
     64 H22         7.1754   -8.7338   -6.4927 H         1 <0>         0.1451
     65 H23         7.1917  -10.7281  -10.2631 H         1 <0>         0.1490
     66 H24         4.8969  -11.5209   -9.8597 H         1 <0>         0.1428
     67 H25        10.5688  -10.7664   -8.8616 H         1 <0>         0.4308
     68 H26        11.1021   -9.0185   -6.2104 H         1 <0>         0.1434
     69 H27        11.1439   -9.7364   -3.8568 H         1 <0>         0.1332
     70 H28         8.9822  -13.2669   -4.8849 H         1 <0>         0.1301
     71 H29         8.9250  -12.5531   -7.2395 H         1 <0>         0.1353
     72 H30        10.0927  -13.0708   -2.7378 H         1 <0>         0.0984
     73 H31        10.9951  -11.5977   -2.3088 H         1 <0>         0.0994
     74 H32         8.8623  -10.3479   -2.1141 H         1 <0>         0.1360
     75 H33         7.9599  -11.8210   -2.5431 H         1 <0>         0.1341
     76 H34         8.8871  -12.8710   -0.6132 H         1 <0>         0.4324
     77 H35         7.7058  -10.2508   -0.0147 H         1 <0>         0.1456
     78 H36         6.8034  -11.7238   -0.4437 H         1 <0>         0.1377
     79 H37         7.5079   -9.4916    2.9609 H         1 <0>         0.1413
     80 H38         5.4608   -8.6720    4.1088 H         1 <0>         0.1473
     81 H39         3.3885   -9.9951    3.9646 H         1 <0>         0.1670
     82 H40         5.2581  -12.8628    1.6180 H         1 <0>         0.1524
     83 H41         6.9566  -13.6223    1.1560 H         1 <0>         0.3897
     84 H42         9.7224  -11.5074   -0.2162 H         1 <0>         0.4300
@<TRIPOS>BOND
     1    1    2 1
     2    1   44 1
     3    1   45 1
     4    1   46 1
     5    2    3 1
     6    2   47 1
     7    2   48 1
     8    3    4 1
     9    3   49 1
    10    3   50 1
    11    4    5 1
    12    4   51 1
    13    4   52 1
    14    5    6 1
    15    5   53 1
    16    5   54 1
    17    6    7 1
    18    6   55 1
    19    6   56 1
    20    7    8 1
    21    7   57 1
    22    7   58 1
    23    8    9 1
    24    8   59 1
    25    8   60 1
    26    9   13 am
    27    9   10 1
    28   10   11 2
    29   10   61 1
    30   11   12 1
    31   11   62 1
    32   12   13 am
    33   12   15 1
    34   13   14 2
    35   15   20 ar
    36   15   16 ar
    37   16   17 ar
    38   16   63 1
    39   17   18 ar
    40   17   64 1
    41   18   19 ar
    42   18   21 1
    43   19   20 ar
    44   19   65 1
    45   20   66 1
    46   21   22 2
    47   21   23 2
    48   21   24 1
    49   24   25 1
    50   24   67 1
    51   25   30 ar
    52   25   26 ar
    53   26   27 ar
    54   26   68 1
    55   27   28 ar
    56   27   69 1
    57   28   29 ar
    58   28   31 1
    59   29   30 ar
    60   29   70 1
    61   30   71 1
    62   31   32 1
    63   31   72 1
    64   31   73 1
    65   32   33 1
    66   32   74 1
    67   32   75 1
    68   33   34 1
    69   33   76 1
    70   33   84 1
    71   34   35 1
    72   34   77 1
    73   34   78 1
    74   35   36 1
    75   35   37 1
    76   35   43 1
    77   37   42 ar
    78   37   38 ar
    79   38   39 ar
    80   38   79 1
    81   39   40 ar
    82   39   80 1
    83   40   41 ar
    84   40   81 1
    85   41   42 ar
    86   42   82 1
    87   43   83 1
@<TRIPOS>MOLECULE
CHEMBL104076
   73    76     0     0     0
SMALL
USER_CHARGES

@<TRIPOS>ATOM
      1 C1         21.0336   -6.9648   14.6510 C.ar      1 <0>        -0.1152
      2 C2         20.6864   -7.9045   13.6985 C.ar      1 <0>        -0.1181
      3 C3         20.1879   -7.4970   12.4752 C.ar      1 <0>        -0.1131
      4 C4         20.0362   -6.1499   12.2047 C.ar      1 <0>        -0.0921
      5 C5         20.3826   -5.2103   13.1576 C.ar      1 <0>        -0.1110
      6 C6         20.8824   -5.6177   14.3803 C.ar      1 <0>        -0.1160
      7 C7         19.4937   -5.7057   10.8708 C.3       1 <0>        -0.0769
      8 C8         17.9694   -5.5998   10.9498 C.3       1 <0>         0.0895
      9 O1         17.4550   -5.1785    9.6849 O.3       1 <0>        -0.3568
     10 C9         16.1199   -5.0353    9.5850 C.2       1 <0>         0.6517
     11 O2         15.4110   -5.2618   10.5455 O.2       1 <0>        -0.5438
     12 N1         15.5698   -4.6407    8.4196 N.am      1 <0>        -0.6549
     13 C10        14.1777   -4.5860    8.2859 C.ar      1 <0>         0.2215
     14 C11        13.5815   -4.9156    7.0758 C.ar      1 <0>        -0.1636
     15 C12        12.2075   -4.8605    6.9471 C.ar      1 <0>         0.0032
     16 C13        11.4257   -4.4778    8.0216 C.ar      1 <0>        -0.6923
     17 C14        12.0164   -4.1491    9.2279 C.ar      1 <0>         0.0068
     18 C15        13.3895   -4.2076    9.3647 C.ar      1 <0>        -0.1393
     19 S1          9.6731   -4.4084    7.8531 S.o2      1 <0>         2.6898
     20 O3          9.2178   -3.4083    8.7541 O.2       1 <0>        -0.9385
     21 O4          9.4008   -4.3590    6.4593 O.2       1 <0>        -0.9450
     22 N2          9.0709   -5.8499    8.4023 N.pl3     1 <0>        -1.0595
     23 C16         9.4039   -7.0396    7.7506 C.ar      1 <0>         0.1669
     24 C17         9.3663   -7.1077    6.3637 C.ar      1 <0>        -0.1511
     25 C18         9.6967   -8.2854    5.7225 C.ar      1 <0>        -0.0828
     26 C19        10.0642   -9.3962    6.4596 C.ar      1 <0>        -0.1206
     27 C20        10.1027   -9.3319    7.8404 C.ar      1 <0>        -0.0879
     28 C21         9.7791   -8.1556    8.4877 C.ar      1 <0>        -0.1256
     29 C22        10.4231  -10.6799    5.7565 C.3       1 <0>        -0.0992
     30 C23        11.9240  -10.6967    5.4601 C.3       1 <0>        -0.0087
     31 N3         12.2739  -11.9480    4.7747 N.4       1 <0>        -0.5056
     32 C24        13.7150  -11.9641    4.4902 C.3       1 <0>        -0.0427
     33 C25        14.0793  -13.2674    3.7764 C.3       1 <0>         0.1415
     34 H1         13.5235  -13.3372    2.8413 H         1 <0>         0.1343
     35 C26        15.5577  -13.2839    3.4845 C.ar      1 <0>        -0.2004
     36 C27        16.0351  -12.8600    2.2534 C.ar      1 <0>        -0.0547
     37 C28        17.4027  -12.8927    2.0293 C.ar      1 <0>        -0.1640
     38 C29        18.2392  -13.3435    3.0332 C.ar      1 <0>         0.1225
     39 N4         17.7498  -13.7395    4.1917 N.ar      1 <0>        -0.4749
     40 C30        16.4551  -13.7164    4.4421 C.ar      1 <0>         0.1171
     41 O5         13.7464  -14.3775    4.6123 O.3       1 <0>        -0.5458
     42 H2         21.4189   -7.2833   15.6084 H         1 <0>         0.1252
     43 H3         20.8050   -8.9570   13.9098 H         1 <0>         0.1247
     44 H4         19.9173   -8.2311   11.7307 H         1 <0>         0.1215
     45 H5         20.2644   -4.1578   12.9461 H         1 <0>         0.1241
     46 H6         21.1533   -4.8836   15.1247 H         1 <0>         0.1262
     47 H7         19.9127   -4.7327   10.6139 H         1 <0>         0.0873
     48 H8         19.7683   -6.4327   10.1065 H         1 <0>         0.0850
     49 H9         17.5505   -6.5727   11.2066 H         1 <0>         0.0736
     50 H10        17.6948   -4.8728   11.7141 H         1 <0>         0.0762
     51 H11        16.1387   -4.3947    7.6735 H         1 <0>         0.4238
     52 H12        14.1916   -5.2142    6.2362 H         1 <0>         0.1390
     53 H13        11.7431   -5.1164    6.0062 H         1 <0>         0.1467
     54 H14        11.4031   -3.8502   10.0651 H         1 <0>         0.1468
     55 H15        13.8500   -3.9550   10.3084 H         1 <0>         0.1541
     56 H16         8.4869   -5.8681    9.1765 H         1 <0>         0.4326
     57 H17         9.0787   -6.2407    5.7874 H         1 <0>         0.1642
     58 H18         9.6676   -8.3390    4.6442 H         1 <0>         0.1328
     59 H19        10.3902  -10.2012    8.4131 H         1 <0>         0.1297
     60 H20         9.8137   -8.1047    9.5660 H         1 <0>         0.1358
     61 H21        10.1692  -11.5267    6.3941 H         1 <0>         0.0973
     62 H22         9.8673  -10.7497    4.8214 H         1 <0>         0.0982
     63 H23        12.1780   -9.8499    4.8225 H         1 <0>         0.1345
     64 H24        12.4798  -10.6269    6.3952 H         1 <0>         0.1331
     65 H25        12.0388  -12.7319    5.3650 H         1 <0>         0.4328
     66 H26        13.9689  -11.1173    3.8525 H         1 <0>         0.1447
     67 H27        14.2707  -11.8943    5.4253 H         1 <0>         0.1371
     68 H28        15.3574  -12.5130    1.4874 H         1 <0>         0.1413
     69 H29        17.8095  -12.5703    1.0822 H         1 <0>         0.1473
     70 H30        19.3058  -13.3721    2.8665 H         1 <0>         0.1671
     71 H31        16.0917  -14.0436    5.4050 H         1 <0>         0.1527
     72 H32        14.2053  -14.3805    5.4635 H         1 <0>         0.3898
     73 H33        11.7594  -12.0126    3.9092 H         1 <0>         0.4302
@<TRIPOS>BOND
     1    1    6 ar
     2    1    2 ar
     3    1   42 1
     4    2    3 ar
     5    2   43 1
     6    3    4 ar
     7    3   44 1
     8    4    5 ar
     9    4    7 1
    10    5    6 ar
    11    5   45 1
    12    6   46 1
    13    7    8 1
    14    7   47 1
    15    7   48 1
    16    8    9 1
    17    8   49 1
    18    8   50 1
    19    9   10 1
    20   10   11 2
    21   10   12 am
    22   12   13 1
    23   12   51 1
    24   13   18 ar
    25   13   14 ar
    26   14   15 ar
    27   14   52 1
    28   15   16 ar
    29   15   53 1
    30   16   17 ar
    31   16   19 1
    32   17   18 ar
    33   17   54 1
    34   18   55 1
    35   19   20 2
    36   19   21 2
    37   19   22 1
    38   22   23 1
    39   22   56 1
    40   23   28 ar
    41   23   24 ar
    42   24   25 ar
    43   24   57 1
    44   25   26 ar
    45   25   58 1
    46   26   27 ar
    47   26   29 1
    48   27   28 ar
    49   27   59 1
    50   28   60 1
    51   29   30 1
    52   29   61 1
    53   29   62 1
    54   30   31 1
    55   30   63 1
    56   30   64 1
    57   31   32 1
    58   31   65 1
    59   31   73 1
    60   32   33 1
    61   32   66 1
    62   32   67 1
    63   33   34 1
    64   33   35 1
    65   33   41 1
    66   35   40 ar
    67   35   36 ar
    68   36   37 ar
    69   36   68 1
    70   37   38 ar
    71   37   69 1
    72   38   39 ar
    73   38   70 1
    74   39   40 ar
    75   40   71 1
    76   41   72 1
@<TRIPOS>MOLECULE
CHEMBL104076
   72    75     0     0     0
SMALL
USER_CHARGES

@<TRIPOS>ATOM
      1 C1          7.2294   -6.1367   -5.2269 C.ar      1 <0>        -0.1188
      2 C2          6.1226   -6.3479   -4.4261 C.ar      1 <0>        -0.1183
      3 C3          5.8559   -5.4901   -3.3754 C.ar      1 <0>        -0.1118
      4 C4          6.6963   -4.4214   -3.1253 C.ar      1 <0>        -0.0872
      5 C5          7.8035   -4.2107   -3.9256 C.ar      1 <0>        -0.1119
      6 C6          8.0694   -5.0676   -4.9771 C.ar      1 <0>        -0.1183
      7 C7          6.4050   -3.4857   -1.9804 C.3       1 <0>        -0.0780
      8 C8          7.0976   -3.9965   -0.7154 C.3       1 <0>         0.0896
      9 O1          6.8214   -3.1092    0.3702 O.3       1 <0>        -0.3611
     10 C9          7.3612   -3.4178    1.5645 C.2       1 <0>         0.6496
     11 O2          8.0481   -4.4133    1.6817 O.2       1 <0>        -0.5449
     12 N1          7.1398   -2.6226    2.6299 N.am      1 <0>        -0.6502
     13 C10         7.6192   -2.9932    3.8914 C.ar      1 <0>         0.1926
     14 C11         6.8826   -2.6963    5.0305 C.ar      1 <0>        -0.1632
     15 C12         7.3585   -3.0634    6.2740 C.ar      1 <0>        -0.0042
     16 C13         8.5672   -3.7258    6.3854 C.ar      1 <0>        -0.6307
     17 C14         9.3031   -4.0229    5.2530 C.ar      1 <0>        -0.0036
     18 C15         8.8299   -3.6636    4.0062 C.ar      1 <0>        -0.1423
     19 S1          9.1711   -4.1918    7.9737 S.o2      1 <0>         2.6110
     20 O3         10.5815   -4.3147    7.8519 O.2       1 <0>        -1.0248
     21 O4          8.5609   -3.3172    8.9129 O.2       1 <0>        -1.0278
     22 N2          8.5896   -5.7092    8.2928 N.2       1 <0>        -1.0819
     23 C16         8.9098   -6.3409    9.4967 C.ar      1 <0>         0.2969
     24 C17         9.7113   -5.6955   10.4298 C.ar      1 <0>        -0.2653
     25 C18        10.0256   -6.3229   11.6193 C.ar      1 <0>        -0.0475
     26 C19         9.5438   -7.5922   11.8818 C.ar      1 <0>        -0.2373
     27 C20         8.7458   -8.2376   10.9550 C.ar      1 <0>        -0.0636
     28 C21         8.4229   -7.6137    9.7659 C.ar      1 <0>        -0.1812
     29 C22         9.8898   -8.2740   13.1804 C.3       1 <0>        -0.0707
     30 C23         8.8331   -7.9326   14.2329 C.3       1 <0>        -0.0112
     31 N3          9.1703   -8.5972   15.4989 N.4       1 <0>        -0.5054
     32 C24         8.1558   -8.2694   16.5094 C.3       1 <0>        -0.0426
     33 C25         8.5070   -8.9616   17.8279 C.3       1 <0>         0.1403
     34 H1          9.4838   -8.6189   18.1692 H         1 <0>         0.1328
     35 C26         7.4662   -8.6253   18.8646 C.ar      1 <0>        -0.1950
     36 C27         7.6659   -7.5717   19.7439 C.ar      1 <0>        -0.0553
     37 C28         6.6814   -7.2988   20.6810 C.ar      1 <0>        -0.1653
     38 C29         5.5416   -8.0803   20.7076 C.ar      1 <0>         0.1185
     39 N4          5.3858   -9.0748   19.8560 N.ar      1 <0>        -0.4762
     40 C30         6.2984   -9.3593   18.9473 C.ar      1 <0>         0.1169
     41 O5          8.5413  -10.3762   17.6288 O.3       1 <0>        -0.5469
     42 H2          7.4402   -6.8094   -6.0451 H         1 <0>         0.1229
     43 H3          5.4661   -7.1829   -4.6215 H         1 <0>         0.1239
     44 H4          4.9909   -5.6547   -2.7501 H         1 <0>         0.1237
     45 H5          8.4598   -3.3755   -3.7304 H         1 <0>         0.1237
     46 H6          8.9343   -4.9028   -5.6026 H         1 <0>         0.1239
     47 H7          6.7770   -2.4898   -2.2214 H         1 <0>         0.0858
     48 H8          5.3289   -3.4408   -1.8126 H         1 <0>         0.0858
     49 H9          6.7256   -4.9923   -0.4744 H         1 <0>         0.0733
     50 H10         8.1736   -4.0413   -0.8832 H         1 <0>         0.0731
     51 H11         6.6480   -1.7934    2.5223 H         1 <0>         0.4192
     52 H12         5.9386   -2.1787    4.9441 H         1 <0>         0.1342
     53 H13         6.7862   -2.8324    7.1603 H         1 <0>         0.1427
     54 H14        10.2469   -4.5400    5.3434 H         1 <0>         0.1419
     55 H15         9.4030   -3.8999    3.1218 H         1 <0>         0.1462
     56 H16        10.0884   -4.7044   10.2252 H         1 <0>         0.1015
     57 H17        10.6487   -5.8216   12.3453 H         1 <0>         0.1013
     58 H18         8.3711   -9.2289   11.1631 H         1 <0>         0.1042
     59 H19         7.7958   -8.1165    9.0445 H         1 <0>         0.1167
     60 H20         9.9159   -9.3531   13.0286 H         1 <0>         0.0805
     61 H21        10.8666   -7.9314   13.5218 H         1 <0>         0.0793
     62 H22         8.8070   -6.8535   14.3848 H         1 <0>         0.1304
     63 H23         7.8563   -8.2753   13.8916 H         1 <0>         0.1307
     64 H24         9.1945   -9.5961   15.3583 H         1 <0>         0.4292
     65 H25         8.1296   -7.1903   16.6613 H         1 <0>         0.1429
     66 H26         7.1790   -8.6120   16.1681 H         1 <0>         0.1361
     67 H27         8.5671   -6.9781   19.6999 H         1 <0>         0.1413
     68 H28         6.8036   -6.4860   21.3816 H         1 <0>         0.1455
     69 H29         4.7700   -7.8743   21.4346 H         1 <0>         0.1651
     70 H30         6.1331  -10.1783   18.2630 H         1 <0>         0.1538
     71 H31         7.7035  -10.7510   17.3241 H         1 <0>         0.3893
     72 H32        10.0745   -8.2800   15.8148 H         1 <0>         0.4263
@<TRIPOS>BOND
     1    1    6 ar
     2    1    2 ar
     3    1   42 1
     4    2    3 ar
     5    2   43 1
     6    3    4 ar
     7    3   44 1
     8    4    5 ar
     9    4    7 1
    10    5    6 ar
    11    5   45 1
    12    6   46 1
    13    7    8 1
    14    7   47 1
    15    7   48 1
    16    8    9 1
    17    8   49 1
    18    8   50 1
    19    9   10 1
    20   10   11 2
    21   10   12 am
    22   12   13 1
    23   12   51 1
    24   13   18 ar
    25   13   14 ar
    26   14   15 ar
    27   14   52 1
    28   15   16 ar
    29   15   53 1
    30   16   17 ar
    31   16   19 1
    32   17   18 ar
    33   17   54 1
    34   18   55 1
    35   19   20 2
    36   19   21 2
    37   19   22 1
    38   22   23 1
    39   23   28 ar
    40   23   24 ar
    41   24   25 ar
    42   24   56 1
    43   25   26 ar
    44   25   57 1
    45   26   27 ar
    46   26   29 1
    47   27   28 ar
    48   27   58 1
    49   28   59 1
    50   29   30 1
    51   29   60 1
    52   29   61 1
    53   30   31 1
    54   30   62 1
    55   30   63 1
    56   31   32 1
    57   31   64 1
    58   31   72 1
    59   32   33 1
    60   32   65 1
    61   32   66 1
    62   33   34 1
    63   33   35 1
    64   33   41 1
    65   35   40 ar
    66   35   36 ar
    67   36   37 ar
    68   36   67 1
    69   37   38 ar
    70   37   68 1
    71   38   39 ar
    72   38   69 1
    73   39   40 ar
    74   40   70 1
    75   41   71 1
@<TRIPOS>MOLECULE
CHEMBL13132
   76    79     0     0     0
SMALL
USER_CHARGES

@<TRIPOS>ATOM
      1 C1         14.7648  -12.0359   13.6316 C.ar      1 <0>        -0.1026
      2 C2         14.3645  -12.6734   12.4721 C.ar      1 <0>        -0.1204
      3 C3         14.3216  -11.9759   11.2794 C.ar      1 <0>        -0.0914
      4 C4         14.6785  -10.6409   11.2462 C.ar      1 <0>        -0.1069
      5 C5         15.0780  -10.0032   12.4058 C.ar      1 <0>        -0.0943
      6 C6         15.1222  -10.7010   13.5983 C.ar      1 <0>        -0.1234
      7 C7         14.6327   -9.8808    9.9457 C.3       1 <0>         0.1288
      8 O1         13.3405   -9.2927    9.7830 O.3       1 <0>        -0.3513
      9 C8         13.1326   -8.5739    8.6636 C.2       1 <0>         0.6509
     10 O2         14.0240   -8.4494    7.8472 O.2       1 <0>        -0.5452
     11 N1         11.9359   -7.9926    8.4485 N.am      1 <0>        -0.6546
     12 C9         11.7496   -7.1655    7.3350 C.ar      1 <0>         0.2214
     13 C10        10.9327   -6.0465    7.4283 C.ar      1 <0>        -0.1637
     14 C11        10.7509   -5.2323    6.3276 C.ar      1 <0>         0.0033
     15 C12        11.3813   -5.5305    5.1335 C.ar      1 <0>        -0.6923
     16 C13        12.1955   -6.6441    5.0374 C.ar      1 <0>         0.0068
     17 C14        12.3859   -7.4590    6.1361 C.ar      1 <0>        -0.1393
     18 S1         11.1463   -4.4896    3.7314 S.o2      1 <0>         2.6897
     19 O3         11.2898   -5.3154    2.5839 O.2       1 <0>        -0.9384
     20 O4          9.9715   -3.7304    3.9816 O.2       1 <0>        -0.9449
     21 N2         12.4066   -3.4156    3.7022 N.pl3     1 <0>        -1.0595
     22 C15        12.5720   -2.5045    4.7478 C.ar      1 <0>         0.1672
     23 C16        11.4782   -1.8043    5.2406 C.ar      1 <0>        -0.1510
     24 C17        11.6452   -0.9044    6.2749 C.ar      1 <0>        -0.0826
     25 C18        12.8997   -0.6998    6.8196 C.ar      1 <0>        -0.1210
     26 C19        13.9908   -1.3952    6.3314 C.ar      1 <0>        -0.0880
     27 C20        13.8298   -2.3007    5.3011 C.ar      1 <0>        -0.1257
     28 C21        13.0783    0.2836    7.9474 C.3       1 <0>        -0.0995
     29 C22        12.8953   -0.4359    9.2852 C.3       1 <0>        -0.0083
     30 N3         13.0694    0.5227   10.3846 N.4       1 <0>        -0.5040
     31 C23        12.8937   -0.1681   11.6691 C.3       1 <0>        -0.0419
     32 C24        13.0750    0.8304   12.8141 C.3       1 <0>         0.0856
     33 H1         12.3339    1.6246   12.7244 H         1 <0>         0.1367
     34 C25        12.8920    0.1109   14.1519 C.3       1 <0>         0.0290
     35 O5         12.9456    1.0630   15.2161 O.3       1 <0>        -0.3009
     36 C26        12.7989    0.5846   16.4806 C.ar      1 <0>         0.1088
     37 C27        12.6132   -0.7737   16.6909 C.ar      1 <0>        -0.1914
     38 C28        12.4643   -1.2597   17.9753 C.ar      1 <0>        -0.1063
     39 C29        12.5008   -0.3894   19.0546 C.ar      1 <0>         0.0807
     40 C30        12.6874    0.9688   18.8444 C.ar      1 <0>        -0.1025
     41 C31        12.8407    1.4542   17.5603 C.ar      1 <0>        -0.1257
     42 O6         12.3533   -0.8677   20.3190 O.3       1 <0>        -0.4957
     43 O7         14.3868    1.3936   12.7518 O.3       1 <0>        -0.5430
     44 H2         14.7940  -12.5797   14.5643 H         1 <0>         0.1280
     45 H3         14.0856  -13.7164   12.4981 H         1 <0>         0.1293
     46 H4         14.0095  -12.4742   10.3734 H         1 <0>         0.1262
     47 H5         15.3572   -8.9602   12.3798 H         1 <0>         0.1223
     48 H6         15.4346  -10.2029   14.5042 H         1 <0>         0.1270
     49 H7         15.3900   -9.0969    9.9562 H         1 <0>         0.0808
     50 H8         14.8280  -10.5635    9.1188 H         1 <0>         0.0835
     51 H9         11.2036   -8.1474    9.0656 H         1 <0>         0.4240
     52 H10        10.4397   -5.8133    8.3605 H         1 <0>         0.1390
     53 H11        10.1153   -4.3620    6.3994 H         1 <0>         0.1467
     54 H12        12.6862   -6.8745    4.1033 H         1 <0>         0.1469
     55 H13        13.0254   -8.3261    6.0617 H         1 <0>         0.1543
     56 H14        13.0298   -3.4193    2.9589 H         1 <0>         0.4327
     57 H15        10.4983   -1.9631    4.8152 H         1 <0>         0.1643
     58 H16        10.7952   -0.3597    6.6585 H         1 <0>         0.1330
     59 H17        14.9692   -1.2330    6.7590 H         1 <0>         0.1296
     60 H18        14.6815   -2.8468    4.9233 H         1 <0>         0.1359
     61 H19        14.0790    0.7132    7.8998 H         1 <0>         0.0974
     62 H20        12.3373    1.0779    7.8577 H         1 <0>         0.0986
     63 H21        11.8947   -0.8655    9.3328 H         1 <0>         0.1354
     64 H22        13.6364   -1.2302    9.3750 H         1 <0>         0.1337
     65 H23        13.9957    0.9204   10.3406 H         1 <0>         0.4337
     66 H24        11.8930   -0.5977   11.7167 H         1 <0>         0.1473
     67 H25        13.6347   -0.9623   11.7588 H         1 <0>         0.1393
     68 H26        11.9258   -0.3935   14.1640 H         1 <0>         0.0819
     69 H27        13.6869   -0.6236   14.2812 H         1 <0>         0.0764
     70 H28        12.5848   -1.4513   15.8504 H         1 <0>         0.1281
     71 H29        12.3190   -2.3172   18.1390 H         1 <0>         0.1350
     72 H30        12.7156    1.6465   19.6848 H         1 <0>         0.1419
     73 H31        12.9897    2.5113   17.3968 H         1 <0>         0.1389
     74 H32        13.1849   -1.1172   20.7447 H         1 <0>         0.3940
     75 H33        15.0982    0.7427   12.8254 H         1 <0>         0.3899
     76 H34        12.3834    1.2580   10.3015 H         1 <0>         0.4317
@<TRIPOS>BOND
     1    1    6 ar
     2    1    2 ar
     3    1   44 1
     4    2    3 ar
     5    2   45 1
     6    3    4 ar
     7    3   46 1
     8    4    5 ar
     9    4    7 1
    10    5    6 ar
    11    5   47 1
    12    6   48 1
    13    7    8 1
    14    7   49 1
    15    7   50 1
    16    8    9 1
    17    9   10 2
    18    9   11 am
    19   11   12 1
    20   11   51 1
    21   12   17 ar
    22   12   13 ar
    23   13   14 ar
    24   13   52 1
    25   14   15 ar
    26   14   53 1
    27   15   16 ar
    28   15   18 1
    29   16   17 ar
    30   16   54 1
    31   17   55 1
    32   18   19 2
    33   18   20 2
    34   18   21 1
    35   21   22 1
    36   21   56 1
    37   22   27 ar
    38   22   23 ar
    39   23   24 ar
    40   23   57 1
    41   24   25 ar
    42   24   58 1
    43   25   26 ar
    44   25   28 1
    45   26   27 ar
    46   26   59 1
    47   27   60 1
    48   28   29 1
    49   28   61 1
    50   28   62 1
    51   29   30 1
    52   29   63 1
    53   29   64 1
    54   30   31 1
    55   30   65 1
    56   30   76 1
    57   31   32 1
    58   31   66 1
    59   31   67 1
    60   32   33 1
    61   32   34 1
    62   32   43 1
    63   34   35 1
    64   34   68 1
    65   34   69 1
    66   35   36 1
    67   36   41 ar
    68   36   37 ar
    69   37   38 ar
    70   37   70 1
    71   38   39 ar
    72   38   71 1
    73   39   40 ar
    74   39   42 1
    75   40   41 ar
    76   40   72 1
    77   41   73 1
    78   42   74 1
    79   43   75 1
@<TRIPOS>MOLECULE
CHEMBL13132
   75    78     0     0     0
SMALL
USER_CHARGES

@<TRIPOS>ATOM
      1 C1          0.0631    2.3848    3.5120 C.ar      1 <0>        -0.1074
      2 C2          0.1113    1.2294    4.2693 C.ar      1 <0>        -0.1235
      3 C3          1.3308    0.6595    4.5838 C.ar      1 <0>        -0.0931
      4 C4          2.5020    1.2448    4.1406 C.ar      1 <0>        -0.1006
      5 C5          2.4538    2.3997    3.3825 C.ar      1 <0>        -0.0930
      6 C6          1.2344    2.9704    3.0692 C.ar      1 <0>        -0.1235
      7 C7          3.8316    0.6240    4.4842 C.3       1 <0>         0.1268
      8 O1          4.1965   -0.3129    3.4688 O.3       1 <0>        -0.3554
      9 C8          5.3670   -0.9597    3.6260 C.2       1 <0>         0.6491
     10 O2          6.0595   -0.7348    4.5988 O.2       1 <0>        -0.5458
     11 N1          5.7704   -1.8566    2.7044 N.am      1 <0>        -0.6500
     12 C9          7.0294   -2.4572    2.8167 C.ar      1 <0>         0.1928
     13 C10         7.7636   -2.7527    1.6757 C.ar      1 <0>        -0.1632
     14 C11         9.0058   -3.3456    1.7899 C.ar      1 <0>        -0.0042
     15 C12         9.5186   -3.6449    3.0388 C.ar      1 <0>        -0.6309
     16 C13         8.7899   -3.3518    4.1769 C.ar      1 <0>        -0.0036
     17 C14         7.5496   -2.7538    4.0697 C.ar      1 <0>        -0.1422
     18 S1         11.1034   -4.4017    3.1801 S.o2      1 <0>         2.6112
     19 O3         11.1211   -5.0766    4.4305 O.2       1 <0>        -1.0246
     20 O4         11.3453   -5.0705    1.9499 O.2       1 <0>        -1.0277
     21 N2         12.2203   -3.1834    3.2841 N.2       1 <0>        -1.0818
     22 C15        13.5777   -3.4889    3.4060 C.ar      1 <0>         0.2971
     23 C16        13.9932   -4.8142    3.4345 C.ar      1 <0>        -0.2652
     24 C17        15.3362   -5.1127    3.5546 C.ar      1 <0>        -0.0473
     25 C18        16.2670   -4.0942    3.6470 C.ar      1 <0>        -0.2377
     26 C19        15.8568   -2.7739    3.6190 C.ar      1 <0>        -0.0636
     27 C20        14.5159   -2.4682    3.4933 C.ar      1 <0>        -0.1813
     28 C21        17.7315   -4.4239    3.7791 C.3       1 <0>        -0.0710
     29 C22        18.3589   -4.5255    2.3873 C.3       1 <0>        -0.0110
     30 N3         19.7865   -4.8468    2.5160 N.4       1 <0>        -0.5039
     31 C23        20.3889   -4.9444    1.1797 C.3       1 <0>        -0.0418
     32 C24        21.8758   -5.2791    1.3138 C.3       1 <0>         0.0863
     33 H1         21.9886   -6.2305    1.8336 H         1 <0>         0.1348
     34 C25        22.5032   -5.3807   -0.0780 C.3       1 <0>         0.0285
     35 O5         23.8619   -5.8068    0.0420 O.3       1 <0>        -0.3012
     36 C26        24.5685   -5.9485   -1.1112 C.ar      1 <0>         0.1124
     37 C27        23.9668   -5.6771   -2.3310 C.ar      1 <0>        -0.1913
     38 C28        24.6846   -5.8211   -3.5024 C.ar      1 <0>        -0.1052
     39 C29        26.0072   -6.2366   -3.4586 C.ar      1 <0>         0.0763
     40 C30        26.6091   -6.5071   -2.2387 C.ar      1 <0>        -0.1035
     41 C31        25.8926   -6.3590   -1.0671 C.ar      1 <0>        -0.1279
     42 O6         26.7135   -6.3791   -4.6118 O.3       1 <0>        -0.4964
     43 O7         22.5306   -4.2495    2.0575 O.3       1 <0>        -0.5445
     44 H2         -0.8899    2.8276    3.2625 H         1 <0>         0.1252
     45 H3         -0.8038    0.7721    4.6156 H         1 <0>         0.1264
     46 H4          1.3684   -0.2428    5.1760 H         1 <0>         0.1254
     47 H5          3.3689    2.8572    3.0365 H         1 <0>         0.1254
     48 H6          1.1967    3.8729    2.4772 H         1 <0>         0.1264
     49 H7          4.5906    1.4036    4.5491 H         1 <0>         0.0811
     50 H8          3.7557    0.1101    5.4425 H         1 <0>         0.0810
     51 H9          5.1880   -2.0857    1.9633 H         1 <0>         0.4194
     52 H10         7.3636   -2.5196    0.7000 H         1 <0>         0.1341
     53 H11         9.5772   -3.5760    0.9028 H         1 <0>         0.1427
     54 H12         9.1929   -3.5871    5.1509 H         1 <0>         0.1420
     55 H13         6.9829   -2.5211    4.9591 H         1 <0>         0.1464
     56 H14        13.2667   -5.6101    3.3630 H         1 <0>         0.1017
     57 H15        15.6598   -6.1429    3.5768 H         1 <0>         0.1015
     58 H16        16.5863   -1.9808    3.6914 H         1 <0>         0.1040
     59 H17        14.1967   -1.4368    3.4670 H         1 <0>         0.1167
     60 H18        18.2310   -3.6385    4.3463 H         1 <0>         0.0806
     61 H19        17.8444   -5.3753    4.2988 H         1 <0>         0.0798
     62 H20        17.8594   -5.3109    1.8201 H         1 <0>         0.1313
     63 H21        18.2460   -3.5741    1.8676 H         1 <0>         0.1311
     64 H22        20.2489   -4.1198    3.0411 H         1 <0>         0.4300
     65 H23        19.8894   -5.7298    0.6125 H         1 <0>         0.1455
     66 H24        20.2760   -3.9930    0.6600 H         1 <0>         0.1381
     67 H25        21.9471   -6.1033   -0.6753 H         1 <0>         0.0827
     68 H26        22.4697   -4.4055   -0.5637 H         1 <0>         0.0770
     69 H27        22.9370   -5.3536   -2.3651 H         1 <0>         0.1303
     70 H28        24.2159   -5.6104   -4.4523 H         1 <0>         0.1348
     71 H29        27.6389   -6.8309   -2.2047 H         1 <0>         0.1401
     72 H30        26.3625   -6.5660   -0.1170 H         1 <0>         0.1382
     73 H31        27.1804   -5.5788   -4.8886 H         1 <0>         0.3922
     74 H32        22.4708   -3.3732    1.6528 H         1 <0>         0.3894
     75 H33        19.8910   -5.7276    2.9972 H         1 <0>         0.4278
@<TRIPOS>BOND
     1    1    6 ar
     2    1    2 ar
     3    1   44 1
     4    2    3 ar
     5    2   45 1
     6    3    4 ar
     7    3   46 1
     8    4    5 ar
     9    4    7 1
    10    5    6 ar
    11    5   47 1
    12    6   48 1
    13    7    8 1
    14    7   49 1
    15    7   50 1
    16    8    9 1
    17    9   10 2
    18    9   11 am
    19   11   12 1
    20   11   51 1
    21   12   17 ar
    22   12   13 ar
    23   13   14 ar
    24   13   52 1
    25   14   15 ar
    26   14   53 1
    27   15   16 ar
    28   15   18 1
    29   16   17 ar
    30   16   54 1
    31   17   55 1
    32   18   19 2
    33   18   20 2
    34   18   21 1
    35   21   22 1
    36   22   27 ar
    37   22   23 ar
    38   23   24 ar
    39   23   56 1
    40   24   25 ar
    41   24   57 1
    42   25   26 ar
    43   25   28 1
    44   26   27 ar
    45   26   58 1
    46   27   59 1
    47   28   29 1
    48   28   60 1
    49   28   61 1
    50   29   30 1
    51   29   62 1
    52   29   63 1
    53   30   31 1
    54   30   64 1
    55   30   75 1
    56   31   32 1
    57   31   65 1
    58   31   66 1
    59   32   33 1
    60   32   34 1
    61   32   43 1
    62   34   35 1
    63   34   67 1
    64   34   68 1
    65   35   36 1
    66   36   41 ar
    67   36   37 ar
    68   37   38 ar
    69   37   69 1
    70   38   39 ar
    71   38   70 1
    72   39   40 ar
    73   39   42 1
    74   40   41 ar
    75   40   71 1
    76   41   72 1
    77   42   73 1
    78   43   74 1
@<TRIPOS>MOLECULE
CHEMBL57185
   50    52     0     0     0
SMALL
USER_CHARGES

@<TRIPOS>ATOM
      1 C1         -0.0187    1.5258    0.0104 C.3       1 <0>        -0.1572
      2 C2          0.0021   -0.0041    0.0020 C.3       1 <0>        -0.1522
      3 C3          0.7421   -0.5109    1.2415 C.3       1 <0>        -0.0107
      4 N1          0.7620   -1.9797    1.2335 N.4       1 <0>        -0.5045
      5 C4          1.4725   -2.4664    2.4236 C.3       1 <0>        -0.0419
      6 C5          1.4932   -3.9962    2.4152 C.3       1 <0>         0.0854
      7 C6          2.1222   -4.5049    3.7138 C.3       1 <0>         0.0263
      8 O1          2.0363   -5.9306    3.7582 O.3       1 <0>        -0.2932
      9 C7          2.5523   -6.5453    4.8530 C.ar      1 <0>         0.1830
     10 C8          3.1257   -5.7822    5.8678 C.ar      1 <0>        -0.2357
     11 C9          3.6484   -6.3871    6.9754 C.ar      1 <0>         0.0136
     12 C10         3.6072   -7.7769    7.0897 C.ar      1 <0>        -0.2510
     13 C11         4.1608   -8.4653    8.2707 C.2       1 <0>         0.4235
     14 O2          4.6728   -7.8420    9.1860 O.2       1 <0>        -0.4660
     15 C12         4.0742   -9.8778    8.3003 C.2       1 <0>        -0.3129
     16 C13         3.4958  -10.5360    7.2608 C.2       1 <0>         0.2138
     17 O3          2.9959   -9.8982    6.1910 O.3       1 <0>        -0.2174
     18 C14         3.0308   -8.5547    6.0710 C.ar      1 <0>         0.1938
     19 C15         2.4993   -7.9255    4.9545 C.ar      1 <0>        -0.1725
     20 C16         3.4150  -12.0096    7.3105 C.ar      1 <0>        -0.0801
     21 C17         3.9211  -12.7032    8.4121 C.ar      1 <0>        -0.0781
     22 C18         3.8423  -14.0797    8.4519 C.ar      1 <0>        -0.1196
     23 C19         3.2636  -14.7734    7.4038 C.ar      1 <0>        -0.0888
     24 C20         2.7606  -14.0927    6.3091 C.ar      1 <0>        -0.1230
     25 C21         2.8271  -12.7158    6.2589 C.ar      1 <0>        -0.0789
     26 O4          2.2618   -4.4560    1.3017 O.3       1 <0>        -0.5426
     27 H1          1.0039    1.9031    0.0027 H         1 <0>         0.0675
     28 H2         -0.5459    1.8868   -0.8726 H         1 <0>         0.0789
     29 H3         -0.5289    1.8773    0.9072 H         1 <0>         0.0675
     30 H4         -1.0205   -0.3814    0.0098 H         1 <0>         0.0877
     31 H5          0.5123   -0.3556   -0.8948 H         1 <0>         0.0878
     32 H6          1.7647   -0.1336    1.2338 H         1 <0>         0.1324
     33 H7          0.2319   -0.1594    2.1383 H         1 <0>         0.1329
     34 H8         -0.1846   -2.3290    1.2406 H         1 <0>         0.4308
     35 H9          2.4951   -2.0891    2.4158 H         1 <0>         0.1410
     36 H10         0.9623   -2.1149    3.3204 H         1 <0>         0.1472
     37 H11         0.4737   -4.3730    2.3333 H         1 <0>         0.1364
     38 H12         3.1686   -4.2025    3.7535 H         1 <0>         0.0829
     39 H13         1.5893   -4.0821    4.5656 H         1 <0>         0.0874
     40 H14         3.1574   -4.7064    5.7781 H         1 <0>         0.1377
     41 H15         4.0923   -5.7917    7.7595 H         1 <0>         0.1494
     42 H16         4.4651  -10.4289    9.1429 H         1 <0>         0.1658
     43 H17         2.0495   -8.5102    4.1656 H         1 <0>         0.1547
     44 H18         4.3734  -12.1630    9.2306 H         1 <0>         0.1366
     45 H19         4.2336  -14.6173    9.3029 H         1 <0>         0.1364
     46 H20         3.2045  -15.8512    7.4401 H         1 <0>         0.1327
     47 H21         2.3105  -14.6404    5.4943 H         1 <0>         0.1335
     48 H22         2.4294  -12.1855    5.4062 H         1 <0>         0.1340
     49 H23         3.1818   -4.1582    1.3089 H         1 <0>         0.3915
     50 H24         1.2343   -2.3051    0.4033 H         1 <0>         0.4340
@<TRIPOS>BOND
     1    1    2 1
     2    1   27 1
     3    1   28 1
     4    1   29 1
     5    2    3 1
     6    2   30 1
     7    2   31 1
     8    3    4 1
     9    3   32 1
    10    3   33 1
    11    4    5 1
    12    4   34 1
    13    4   50 1
    14    5    6 1
    15    5   35 1
    16    5   36 1
    17    6    7 1
    18    6   26 1
    19    6   37 1
    20    7    8 1
    21    7   38 1
    22    7   39 1
    23    8    9 1
    24    9   19 ar
    25    9   10 ar
    26   10   11 ar
    27   10   40 1
    28   11   12 ar
    29   11   41 1
    30   12   18 ar
    31   12   13 1
    32   13   14 2
    33   13   15 1
    34   15   16 2
    35   15   42 1
    36   16   17 1
    37   16   20 1
    38   17   18 1
    39   18   19 ar
    40   19   43 1
    41   20   25 ar
    42   20   21 ar
    43   21   22 ar
    44   21   44 1
    45   22   23 ar
    46   22   45 1
    47   23   24 ar
    48   23   46 1
    49   24   25 ar
    50   24   47 1
    51   25   48 1
    52   26   49 1
@<TRIPOS>MOLECULE
CHEMBL57185
   50    52     0     0     0
SMALL
USER_CHARGES

@<TRIPOS>ATOM
      1 C1         -0.0187    1.5258    0.0104 C.3       1 <0>        -0.1572
      2 C2          0.0021   -0.0041    0.0020 C.3       1 <0>        -0.1522
      3 C3          0.7421   -0.5109    1.2415 C.3       1 <0>        -0.0106
      4 N1          0.7620   -1.9797    1.2335 N.4       1 <0>        -0.5039
      5 C4          1.4725   -2.4664    2.4236 C.3       1 <0>        -0.0421
      6 C5          1.4932   -3.9962    2.4152 C.3       1 <0>         0.0852
      7 C6          2.2332   -4.5030    3.6547 C.3       1 <0>         0.0263
      8 O1          2.3545   -5.9254    3.5887 O.3       1 <0>        -0.2931
      9 C7          2.9910   -6.5381    4.6193 C.ar      1 <0>         0.1829
     10 C8          3.4836   -5.7772    5.6773 C.ar      1 <0>        -0.2357
     11 C9          4.1258   -6.3802    6.7213 C.ar      1 <0>         0.0136
     12 C10         4.2885   -7.7658    6.7267 C.ar      1 <0>        -0.2510
     13 C11         4.9757   -8.4522    7.8366 C.2       1 <0>         0.4235
     14 O2          5.4243   -7.8309    8.7859 O.2       1 <0>        -0.4660
     15 C12         5.0939   -9.8604    7.7570 C.2       1 <0>        -0.3129
     16 C13         4.5804  -10.5167    6.6827 C.2       1 <0>         0.2138
     17 O3          3.9574   -9.8807    5.6784 O.3       1 <0>        -0.2174
     18 C14         3.7949   -8.5413    5.6638 C.ar      1 <0>         0.1938
     19 C15         3.1402   -7.9150    4.6130 C.ar      1 <0>        -0.1725
     20 C16         4.7138  -11.9859    6.6182 C.ar      1 <0>        -0.0801
     21 C17         5.3520  -12.6784    7.6495 C.ar      1 <0>        -0.0781
     22 C18         5.4731  -14.0508    7.5827 C.ar      1 <0>        -0.1196
     23 C19         4.9641  -14.7414    6.4971 C.ar      1 <0>        -0.0888
     24 C20         4.3310  -14.0617    5.4714 C.ar      1 <0>        -0.1230
     25 C21         4.1973  -12.6900    5.5282 C.ar      1 <0>        -0.0789
     26 O4          0.1526   -4.4908    2.4253 O.3       1 <0>        -0.5431
     27 H1          1.0039    1.9031    0.0027 H         1 <0>         0.0676
     28 H2         -0.5459    1.8868   -0.8726 H         1 <0>         0.0789
     29 H3         -0.5289    1.8773    0.9072 H         1 <0>         0.0674
     30 H4         -1.0205   -0.3814    0.0098 H         1 <0>         0.0877
     31 H5          0.5123   -0.3556   -0.8948 H         1 <0>         0.0877
     32 H6          1.7647   -0.1336    1.2338 H         1 <0>         0.1330
     33 H7          0.2319   -0.1594    2.1383 H         1 <0>         0.1323
     34 H8         -0.1846   -2.3290    1.2406 H         1 <0>         0.4335
     35 H9          2.4951   -2.0891    2.4158 H         1 <0>         0.1477
     36 H10         0.9623   -2.1149    3.3204 H         1 <0>         0.1404
     37 H11         2.0034   -4.3477    1.5184 H         1 <0>         0.1373
     38 H12         3.2262   -4.0551    3.6935 H         1 <0>         0.0877
     39 H13         1.6749   -4.2271    4.5493 H         1 <0>         0.0826
     40 H14         3.3574   -4.7046    5.6719 H         1 <0>         0.1377
     41 H15         4.5064   -5.7866    7.5392 H         1 <0>         0.1494
     42 H16         5.5888  -10.4098    8.5441 H         1 <0>         0.1658
     43 H17         2.7521   -8.4985    3.7913 H         1 <0>         0.1547
     44 H18         5.7501  -12.1405    8.4973 H         1 <0>         0.1366
     45 H19         5.9667  -14.5875    8.3794 H         1 <0>         0.1365
     46 H20         5.0617  -15.8160    6.4498 H         1 <0>         0.1327
     47 H21         3.9363  -14.6070    4.6269 H         1 <0>         0.1335
     48 H22         3.6984  -12.1612    4.7295 H         1 <0>         0.1340
     49 H23        -0.3619   -4.2167    3.1968 H         1 <0>         0.3911
     50 H24         1.2343   -2.3051    0.4033 H         1 <0>         0.4311
@<TRIPOS>BOND
     1    1    2 1
     2    1   27 1
     3    1   28 1
     4    1   29 1
     5    2    3 1
     6    2   30 1
     7    2   31 1
     8    3    4 1
     9    3   32 1
    10    3   33 1
    11    4    5 1
    12    4   34 1
    13    4   50 1
    14    5    6 1
    15    5   35 1
    16    5   36 1
    17    6    7 1
    18    6   26 1
    19    6   37 1
    20    7    8 1
    21    7   38 1
    22    7   39 1
    23    8    9 1
    24    9   19 ar
    25    9   10 ar
    26   10   11 ar
    27   10   40 1
    28   11   12 ar
    29   11   41 1
    30   12   18 ar
    31   12   13 1
    32   13   14 2
    33   13   15 1
    34   15   16 2
    35   15   42 1
    36   16   17 1
    37   16   20 1
    38   17   18 1
    39   18   19 ar
    40   19   43 1
    41   20   25 ar
    42   20   21 ar
    43   21   22 ar
    44   21   44 1
    45   22   23 ar
    46   22   45 1
    47   23   24 ar
    48   23   46 1
    49   24   25 ar
    50   24   47 1
    51   25   48 1
    52   26   49 1
@<TRIPOS>MOLECULE
CHEMBL417325
   71    74     0     0     0
SMALL
USER_CHARGES

@<TRIPOS>ATOM
      1 C1          1.1906    2.2840   -1.6099 C.3       1 <0>        -0.6345
      2 S1          1.5920    0.6969   -2.3913 S.o2      1 <0>         2.5252
      3 O1          0.8810    0.5597   -3.6140 O.2       1 <0>        -1.0368
      4 O2          2.9930    0.4656   -2.3381 O.2       1 <0>        -1.0275
      5 N1          0.9364   -0.4481   -1.3905 N.2       1 <0>        -1.0758
      6 C2          0.9749   -1.7994   -1.7532 C.ar      1 <0>         0.2691
      7 C3          1.6610   -2.1944   -2.8924 C.ar      1 <0>        -0.2339
      8 C4          1.6980   -3.5295   -3.2482 C.ar      1 <0>        -0.0970
      9 C5          1.0526   -4.4736   -2.4713 C.ar      1 <0>        -0.2010
     10 C6          0.3668   -4.0872   -1.3344 C.ar      1 <0>        -0.1035
     11 C7          0.3293   -2.7520   -0.9680 C.ar      1 <0>         0.0515
     12 O3         -0.3405   -2.3712    0.1528 O.3       1 <0>        -0.4809
     13 C8          2.4432   -3.9571   -4.4863 C.3       1 <0>         0.1388
     14 H1          3.2202   -3.2271   -4.7130 H         1 <0>         0.1241
     15 C9          1.4689   -4.0468   -5.6626 C.3       1 <0>        -0.0452
     16 N2          2.1954   -4.4636   -6.8694 N.4       1 <0>        -0.5031
     17 C10         1.2599   -4.5498   -7.9988 C.3       1 <0>         0.0266
     18 C11         0.2413   -5.6607   -7.7335 C.3       1 <0>        -0.1601
     19 C12        -0.7532   -5.7246   -8.8969 C.3       1 <0>         0.1246
     20 N3         -0.0041   -5.8797  -10.1514 N.pl3     1 <0>        -0.6329
     21 C13         1.0614   -4.9168  -10.4616 C.3       1 <0>         0.1258
     22 C14         2.0355   -4.8620   -9.2806 C.3       1 <0>        -0.1585
     23 C15        -0.2978   -6.9183  -11.0281 C.ar      1 <0>         0.2188
     24 C16        -1.2250   -7.8916  -10.6662 C.ar      1 <0>        -0.2015
     25 C17        -1.5177   -8.9207  -11.5316 C.ar      1 <0>        -0.0189
     26 C18        -0.8829   -8.9881  -12.7753 C.ar      1 <0>        -0.1545
     27 C19         0.0477   -8.0092  -13.1357 C.ar      1 <0>        -0.0519
     28 C20         0.3319   -6.9794  -12.2682 C.ar      1 <0>        -0.2016
     29 C21        -1.1940  -10.0902  -13.7052 C.2       1 <0>         0.5719
     30 O4         -1.5820  -11.1587  -13.2735 O.2       1 <0>        -0.5267
     31 N4         -1.0483   -9.9128  -15.0332 N.am      1 <0>        -0.5847
     32 C22        -0.5156   -8.7025  -15.6851 C.3       1 <0>         0.0954
     33 C23        -1.1094   -8.7285  -17.1156 C.3       1 <0>        -0.1353
     34 C24        -1.0813  -10.2461  -17.4370 C.3       1 <0>        -0.1072
     35 C25        -1.3885  -10.8966  -16.0715 C.3       1 <0>         0.0652
     36 H2         -2.4476  -11.1470  -16.0122 H         1 <0>         0.0675
     37 C26        -0.5543  -12.1389  -15.8934 C.2       1 <0>         0.4967
     38 O5         -0.8098  -13.1422  -16.5373 O.co2     1 <0>        -0.7006
     39 O6          0.3760  -12.1408  -15.1053 O.co2     1 <0>        -0.6788
     40 O7          3.0412   -5.2359   -4.2645 O.3       1 <0>        -0.5530
     41 H3          0.1083    2.3877   -1.5331 H         1 <0>         0.1175
     42 H4          1.6307    2.3199   -0.6133 H         1 <0>         0.1187
     43 H5          1.5917    3.0980   -2.2138 H         1 <0>         0.1045
     44 H6          2.1657   -1.4589   -3.5013 H         1 <0>         0.1076
     45 H7          1.0839   -5.5157   -2.7532 H         1 <0>         0.1047
     46 H8         -0.1363   -4.8272   -0.7297 H         1 <0>         0.1170
     47 H9         -1.2870   -2.2282    0.0159 H         1 <0>         0.3690
     48 H10         0.6919   -4.7769   -5.4359 H         1 <0>         0.1376
     49 H11         1.0128   -3.0714   -5.8317 H         1 <0>         0.1455
     50 H12         2.9146   -3.7878   -7.0792 H         1 <0>         0.4271
     51 H13         0.7389   -3.5991   -8.1120 H         1 <0>         0.1398
     52 H14         0.7593   -6.6157   -7.6448 H         1 <0>         0.0930
     53 H15        -0.2945   -5.4496   -6.8081 H         1 <0>         0.0991
     54 H16        -1.4197   -6.5765   -8.7616 H         1 <0>         0.1046
     55 H17        -1.3358   -4.8040   -8.9307 H         1 <0>         0.0739
     56 H18         1.5922   -5.2357  -11.3586 H         1 <0>         0.1039
     57 H19         0.6268   -3.9303  -10.6229 H         1 <0>         0.0731
     58 H20         2.7768   -4.0824   -9.4563 H         1 <0>         0.0975
     59 H21         2.5366   -5.8244   -9.1773 H         1 <0>         0.0927
     60 H22        -1.7148   -7.8392   -9.7051 H         1 <0>         0.1257
     61 H23        -2.2368   -9.6757  -11.2501 H         1 <0>         0.1337
     62 H24         0.5400   -8.0587  -14.0957 H         1 <0>         0.1419
     63 H25         1.0472   -6.2202  -12.5480 H         1 <0>         0.1248
     64 H26        -0.8447   -7.8095  -15.1538 H         1 <0>         0.0745
     65 H27         0.5730   -8.7414  -15.7255 H         1 <0>         0.0665
     66 H28        -2.1304   -8.3467  -17.1217 H         1 <0>         0.0718
     67 H29        -0.4811   -8.1704  -17.8096 H         1 <0>         0.0782
     68 H30        -1.8484  -10.4996  -18.1688 H         1 <0>         0.0763
     69 H31        -0.0951  -10.5473  -17.7904 H         1 <0>         0.0723
     70 H32         2.4072   -5.9359   -4.0571 H         1 <0>         0.3842
     71 H33         2.6176   -5.3666   -6.7128 H         1 <0>         0.4274
@<TRIPOS>BOND
     1    1    2 1
     2    1   41 1
     3    1   42 1
     4    1   43 1
     5    2    3 2
     6    2    4 2
     7    2    5 1
     8    5    6 1
     9    6   11 ar
    10    6    7 ar
    11    7    8 ar
    12    7   44 1
    13    8    9 ar
    14    8   13 1
    15    9   10 ar
    16    9   45 1
    17   10   11 ar
    18   10   46 1
    19   11   12 1
    20   12   47 1
    21   13   14 1
    22   13   15 1
    23   13   40 1
    24   15   16 1
    25   15   48 1
    26   15   49 1
    27   16   17 1
    28   16   50 1
    29   16   71 1
    30   17   22 1
    31   17   18 1
    32   17   51 1
    33   18   19 1
    34   18   52 1
    35   18   53 1
    36   19   20 1
    37   19   54 1
    38   19   55 1
    39   20   21 1
    40   20   23 1
    41   21   22 1
    42   21   56 1
    43   21   57 1
    44   22   58 1
    45   22   59 1
    46   23   28 ar
    47   23   24 ar
    48   24   25 ar
    49   24   60 1
    50   25   26 ar
    51   25   61 1
    52   26   27 ar
    53   26   29 1
    54   27   28 ar
    55   27   62 1
    56   28   63 1
    57   29   30 2
    58   29   31 am
    59   31   35 1
    60   31   32 1
    61   32   33 1
    62   32   64 1
    63   32   65 1
    64   33   34 1
    65   33   66 1
    66   33   67 1
    67   34   35 1
    68   34   68 1
    69   34   69 1
    70   35   36 1
    71   35   37 1
    72   37   38 2
    73   37   39 1
    74   40   70 1
@<TRIPOS>MOLECULE
CHEMBL417325
   72    75     0     0     0
SMALL
USER_CHARGES

@<TRIPOS>ATOM
      1 C1          0.2849    1.3511    0.1303 C.3       1 <0>        -0.6695
      2 S1          0.3190   -0.4608    0.0514 S.o2      1 <0>         2.6061
      3 O1          1.1496   -0.9800    1.0809 O.2       1 <0>        -0.9499
      4 O2         -0.9943   -0.9670   -0.1442 O.2       1 <0>        -0.9369
      5 N1          1.1205   -0.8106   -1.3549 N.pl3     1 <0>        -1.0508
      6 C2          2.4379   -0.3744   -1.5366 C.ar      1 <0>         0.1363
      7 C3          3.3124   -0.3355   -0.4603 C.ar      1 <0>        -0.1478
      8 C4          4.6131    0.0952   -0.6425 C.ar      1 <0>        -0.1184
      9 C5          5.0458    0.4878   -1.8955 C.ar      1 <0>        -0.1030
     10 C6          4.1798    0.4516   -2.9729 C.ar      1 <0>        -0.1124
     11 C7          2.8763    0.0163   -2.7999 C.ar      1 <0>         0.1084
     12 O3          2.0250   -0.0247   -3.8598 O.3       1 <0>        -0.4877
     13 C8          5.5617    0.1374    0.5277 C.3       1 <0>         0.1346
     14 H1          5.2397   -0.5800    1.2826 H         1 <0>         0.1371
     15 C9          5.5664    1.5439    1.1300 C.3       1 <0>        -0.0484
     16 N2          6.4911    1.5850    2.2707 N.4       1 <0>        -0.5038
     17 C10         6.4957    2.9355    2.8489 C.3       1 <0>         0.0273
     18 C11         7.0640    3.9249    1.8290 C.3       1 <0>        -0.1599
     19 C12         7.0351    5.3369    2.4224 C.3       1 <0>         0.1259
     20 N3          7.7434    5.3235    3.7096 N.pl3     1 <0>        -0.6343
     21 C13         7.3361    4.3479    4.7299 C.3       1 <0>         0.1252
     22 C14         7.3617    2.9469    4.1106 C.3       1 <0>        -0.1599
     23 C15         8.7798    6.2168    3.9573 C.ar      1 <0>         0.2116
     24 C16         9.0651    7.2220    3.0373 C.ar      1 <0>        -0.1985
     25 C17        10.0902    8.1076    3.2796 C.ar      1 <0>        -0.0217
     26 C18        10.8452    7.9971    4.4509 C.ar      1 <0>        -0.1464
     27 C19        10.5562    6.9866    5.3726 C.ar      1 <0>        -0.0459
     28 C20         9.5263    6.1076    5.1273 C.ar      1 <0>        -0.1983
     29 C21        11.9451    8.9445    4.7134 C.2       1 <0>         0.5696
     30 O4         12.5917    9.3969    3.7883 O.2       1 <0>        -0.5242
     31 N4         12.2333    9.3086    5.9786 N.am      1 <0>        -0.5835
     32 C22        11.5860    8.7804    7.1933 C.3       1 <0>         0.0983
     33 C23        11.7816    9.8867    8.2599 C.3       1 <0>        -0.1350
     34 C24        13.2032   10.4040    7.9151 C.3       1 <0>        -0.1076
     35 C25        13.2496   10.2937    6.3764 C.3       1 <0>         0.0647
     36 H2         13.0221   11.2619    5.9302 H         1 <0>         0.0684
     37 C26        14.6135    9.8301    5.9340 C.2       1 <0>         0.4966
     38 O5         15.5672   10.5865    6.0048 O.co2     1 <0>        -0.6979
     39 O6         14.7634    8.6987    5.5052 O.co2     1 <0>        -0.6802
     40 O7          6.8790   -0.1957    0.0853 O.3       1 <0>        -0.5439
     41 H3          1.3055    1.7335    0.1420 H         1 <0>         0.1257
     42 H4         -0.2399    1.7429   -0.7411 H         1 <0>         0.1354
     43 H5         -0.2314    1.6657    1.0372 H         1 <0>         0.1392
     44 H6          0.6769   -1.3178   -2.0527 H         1 <0>         0.4366
     45 H7          2.9768   -0.6413    0.5196 H         1 <0>         0.1705
     46 H8          6.0629    0.8239   -2.0331 H         1 <0>         0.1326
     47 H9          4.5211    0.7590   -3.9504 H         1 <0>         0.1449
     48 H10         1.5277    0.7933   -3.9968 H         1 <0>         0.3979
     49 H11         5.8885    2.2613    0.3751 H         1 <0>         0.1395
     50 H12         4.5616    1.7980    1.4674 H         1 <0>         0.1445
     51 H13         6.1930    0.9210    2.9694 H         1 <0>         0.4298
     52 H14         5.4763    3.2241    3.1054 H         1 <0>         0.1401
     53 H15         8.0919    3.6514    1.5906 H         1 <0>         0.0950
     54 H16         6.4604    3.8991    0.9217 H         1 <0>         0.0944
     55 H17         7.5286    6.0298    1.7410 H         1 <0>         0.1053
     56 H18         6.0017    5.6471    2.5772 H         1 <0>         0.0717
     57 H19         8.0283    4.3883    5.5710 H         1 <0>         0.1069
     58 H20         6.3273    4.5774    5.0729 H         1 <0>         0.0729
     59 H21         6.9699    2.2252    4.8273 H         1 <0>         0.0988
     60 H22         8.3867    2.6827    3.8507 H         1 <0>         0.0948
     61 H23         8.4816    7.3066    2.1325 H         1 <0>         0.1244
     62 H24        10.3113    8.8870    2.5654 H         1 <0>         0.1340
     63 H25        11.1380    6.8984    6.2782 H         1 <0>         0.1388
     64 H26         9.2994    5.3296    5.8413 H         1 <0>         0.1249
     65 H27        10.5245    8.6099    7.0139 H         1 <0>         0.0707
     66 H28        12.0711    7.8574    7.5108 H         1 <0>         0.0654
     67 H29        11.0396   10.6767    8.1440 H         1 <0>         0.0719
     68 H30        11.7513    9.4689    9.2662 H         1 <0>         0.0788
     69 H31        13.3247   11.4393    8.2337 H         1 <0>         0.0775
     70 H32        13.9649    9.7685    8.3667 H         1 <0>         0.0730
     71 H33         7.2305    0.4020   -0.5886 H         1 <0>         0.3885
     72 H34         7.4213    1.3498    1.9583 H         1 <0>         0.4315
@<TRIPOS>BOND
     1    1    2 1
     2    1   41 1
     3    1   42 1
     4    1   43 1
     5    2    3 2
     6    2    4 2
     7    2    5 1
     8    5    6 1
     9    5   44 1
    10    6   11 ar
    11    6    7 ar
    12    7    8 ar
    13    7   45 1
    14    8    9 ar
    15    8   13 1
    16    9   10 ar
    17    9   46 1
    18   10   11 ar
    19   10   47 1
    20   11   12 1
    21   12   48 1
    22   13   14 1
    23   13   15 1
    24   13   40 1
    25   15   16 1
    26   15   49 1
    27   15   50 1
    28   16   17 1
    29   16   51 1
    30   16   72 1
    31   17   22 1
    32   17   18 1
    33   17   52 1
    34   18   19 1
    35   18   53 1
    36   18   54 1
    37   19   20 1
    38   19   55 1
    39   19   56 1
    40   20   21 1
    41   20   23 1
    42   21   22 1
    43   21   57 1
    44   21   58 1
    45   22   59 1
    46   22   60 1
    47   23   28 ar
    48   23   24 ar
    49   24   25 ar
    50   24   61 1
    51   25   26 ar
    52   25   62 1
    53   26   27 ar
    54   26   29 1
    55   27   28 ar
    56   27   63 1
    57   28   64 1
    58   29   30 2
    59   29   31 am
    60   31   35 1
    61   31   32 1
    62   32   33 1
    63   32   65 1
    64   32   66 1
    65   33   34 1
    66   33   67 1
    67   33   68 1
    68   34   35 1
    69   34   69 1
    70   34   70 1
    71   35   36 1
    72   35   37 1
    73   37   38 2
    74   37   39 1
    75   40   71 1
@<TRIPOS>MOLECULE
CHEMBL1089396
   61    64     0     0     0
SMALL
USER_CHARGES

@<TRIPOS>ATOM
      1 C1         11.2180    1.6677   -3.0763 C.ar      1 <0>        -0.1118
      2 C2         10.1746    2.3229   -2.4477 C.ar      1 <0>        -0.1161
      3 C3          9.1624    1.5997   -1.8498 C.ar      1 <0>        -0.1072
      4 C4          9.1930    0.2071   -1.8803 C.ar      1 <0>        -0.0562
      5 C5         10.2464   -0.4478   -2.5149 C.ar      1 <0>        -0.1084
      6 C6         11.2534    0.2853   -3.1095 C.ar      1 <0>        -0.1165
      7 C7          8.1077   -0.5759   -1.2388 C.ar      1 <0>        -0.0438
      8 C8          7.0513    0.0812   -0.6087 C.ar      1 <0>        -0.0784
      9 C9          6.0396   -0.6450   -0.0112 C.ar      1 <0>        -0.1182
     10 C10         6.0670   -2.0251   -0.0331 C.ar      1 <0>        -0.0865
     11 C11         7.1196   -2.6947   -0.6604 C.ar      1 <0>        -0.1410
     12 C12         8.1397   -1.9658   -1.2702 C.ar      1 <0>        -0.0482
     13 C13         7.1493   -4.1725   -0.6828 C.2       1 <0>         0.5677
     14 O1          8.0663   -4.7538   -1.2295 O.2       1 <0>        -0.5137
     15 N1          6.1595   -4.8754   -0.0973 N.am      1 <0>        -0.6741
     16 C14         6.1359   -6.2697   -0.2016 C.ar      1 <0>         0.1666
     17 C15         4.9233   -6.9397   -0.3007 C.ar      1 <0>        -0.1421
     18 C16         4.9034   -8.3168   -0.4041 C.ar      1 <0>        -0.0873
     19 C17         6.0890   -9.0285   -0.4089 C.ar      1 <0>        -0.1272
     20 C18         7.2980   -8.3645   -0.3099 C.ar      1 <0>        -0.0873
     21 C19         7.3251   -6.9872   -0.2121 C.ar      1 <0>        -0.1180
     22 C20         6.0635  -10.5311   -0.5219 C.3       1 <0>        -0.0968
     23 C21         6.1133  -10.9325   -1.9974 C.3       1 <0>        -0.0080
     24 N2          6.0884  -12.3972   -2.1075 N.4       1 <0>        -0.5052
     25 C22         6.1362  -12.7826   -3.5242 C.3       1 <0>        -0.0429
     26 C23         6.1103  -14.3081   -3.6389 C.3       1 <0>         0.1418
     27 H1          5.1942  -14.6908   -3.1889 H         1 <0>         0.1338
     28 C24         6.1593  -14.7035   -5.0923 C.ar      1 <0>        -0.2004
     29 C25         4.9885  -14.9590   -5.7902 C.ar      1 <0>        -0.0549
     30 C26         5.0818  -15.3197   -7.1255 C.ar      1 <0>        -0.1643
     31 C27         6.3298  -15.4120   -7.7127 C.ar      1 <0>         0.1225
     32 N3          7.4222  -15.1621   -7.0179 N.ar      1 <0>        -0.4748
     33 C28         7.3710  -14.8105   -5.7478 C.ar      1 <0>         0.1174
     34 O2          7.2406  -14.8562   -2.9578 O.3       1 <0>        -0.5461
     35 H2         12.0057    2.2375   -3.5467 H         1 <0>         0.1262
     36 H3         10.1521    3.4024   -2.4243 H         1 <0>         0.1278
     37 H4          8.3484    2.1123   -1.3590 H         1 <0>         0.1266
     38 H5         10.2752   -1.5271   -2.5412 H         1 <0>         0.1255
     39 H6         12.0703   -0.2213   -3.6020 H         1 <0>         0.1268
     40 H7          7.0243    1.1606   -0.5874 H         1 <0>         0.1357
     41 H8          5.2239   -0.1310    0.4754 H         1 <0>         0.1368
     42 H9          5.2734   -2.5877    0.4361 H         1 <0>         0.1263
     43 H10         8.9537   -2.4785   -1.7610 H         1 <0>         0.1409
     44 H11         5.4637   -4.4141    0.3966 H         1 <0>         0.4152
     45 H12         3.9969   -6.3845   -0.2966 H         1 <0>         0.1327
     46 H13         3.9608   -8.8384   -0.4808 H         1 <0>         0.1289
     47 H14         8.2222   -8.9233   -0.3133 H         1 <0>         0.1284
     48 H15         8.2698   -6.4688   -0.1396 H         1 <0>         0.1460
     49 H16         6.9257  -10.9492   -0.0023 H         1 <0>         0.0963
     50 H17         5.1475  -10.9137   -0.0719 H         1 <0>         0.0959
     51 H18         5.2511  -10.5144   -2.5170 H         1 <0>         0.1335
     52 H19         7.0293  -10.5498   -2.4474 H         1 <0>         0.1337
     53 H20         6.8865  -12.7842   -1.6266 H         1 <0>         0.4326
     54 H21         5.2740  -12.3645   -4.0438 H         1 <0>         0.1445
     55 H22         7.0522  -12.3999   -3.9742 H         1 <0>         0.1377
     56 H23         4.0270  -14.8793   -5.3050 H         1 <0>         0.1410
     57 H24         4.1907  -15.5263   -7.6997 H         1 <0>         0.1472
     58 H25         6.4110  -15.6924   -8.7525 H         1 <0>         0.1672
     59 H26         8.2870  -14.6084   -5.2125 H         1 <0>         0.1531
     60 H27         8.0921  -14.5583   -3.3060 H         1 <0>         0.3901
     61 H28         5.2404  -12.7514   -1.6910 H         1 <0>         0.4293
@<TRIPOS>BOND
     1    1    6 ar
     2    1    2 ar
     3    1   35 1
     4    2    3 ar
     5    2   36 1
     6    3    4 ar
     7    3   37 1
     8    4    5 ar
     9    4    7 1
    10    5    6 ar
    11    5   38 1
    12    6   39 1
    13    7   12 ar
    14    7    8 ar
    15    8    9 ar
    16    8   40 1
    17    9   10 ar
    18    9   41 1
    19   10   11 ar
    20   10   42 1
    21   11   12 ar
    22   11   13 1
    23   12   43 1
    24   13   14 2
    25   13   15 am
    26   15   16 1
    27   15   44 1
    28   16   21 ar
    29   16   17 ar
    30   17   18 ar
    31   17   45 1
    32   18   19 ar
    33   18   46 1
    34   19   20 ar
    35   19   22 1
    36   20   21 ar
    37   20   47 1
    38   21   48 1
    39   22   23 1
    40   22   49 1
    41   22   50 1
    42   23   24 1
    43   23   51 1
    44   23   52 1
    45   24   25 1
    46   24   53 1
    47   24   61 1
    48   25   26 1
    49   25   54 1
    50   25   55 1
    51   26   27 1
    52   26   28 1
    53   26   34 1
    54   28   33 ar
    55   28   29 ar
    56   29   30 ar
    57   29   56 1
    58   30   31 ar
    59   30   57 1
    60   31   32 ar
    61   31   58 1
    62   32   33 ar
    63   33   59 1
    64   34   60 1
@<TRIPOS>MOLECULE
CHEMBL1221589
   44    46     0     0     0
SMALL
USER_CHARGES

@<TRIPOS>ATOM
      1 C1         -0.0167    1.3781    0.0096 C.ar      1 <0>        -0.1160
      2 C2          1.1709    2.0855    0.0021 C.ar      1 <0>        -0.1167
      3 C3          2.3773    1.4107   -0.0130 C.ar      1 <0>        -0.1155
      4 C4          2.3960    0.0285   -0.0201 C.ar      1 <0>        -0.0970
      5 C5          1.2084   -0.6789   -0.0117 C.ar      1 <0>        -0.1152
      6 C6          0.0021   -0.0041    0.0020 C.ar      1 <0>        -0.1163
      7 C7          3.7112   -0.7071   -0.0376 C.3       1 <0>        -0.0743
      8 C8          4.1714   -0.9633    1.3989 C.3       1 <0>        -0.1442
      9 C9          5.5066   -1.7102    1.3812 C.3       1 <0>        -0.0108
     10 N1          5.9484   -1.9561    2.7604 N.4       1 <0>        -0.5054
     11 C10         7.2304   -2.6732    2.7434 C.3       1 <0>        -0.0452
     12 C11         7.6906   -2.9294    4.1799 C.3       1 <0>         0.1621
     13 H1          6.9444   -3.5313    4.6986 H         1 <0>         0.1155
     14 C12         9.0057   -3.6650    4.1624 C.ar      1 <0>        -0.2345
     15 C13        10.1953   -2.9646    4.2636 C.ar      1 <0>        -0.0378
     16 C14        11.3914   -3.6608    4.2459 C.ar      1 <0>        -0.2398
     17 C15        11.4166   -5.0347    4.1296 C.ar      1 <0>         0.3003
     18 C16        10.2205   -5.7716    4.0251 C.ar      1 <0>        -0.0293
     19 C17         9.0289   -5.0349    4.0517 C.ar      1 <0>        -0.0474
     20 S1          7.7759   -6.2863    3.9096 S.3       1 <0>        -0.1199
     21 C18         8.8556   -7.7060    3.8295 C.2       1 <0>         0.5380
     22 O1          8.5611   -8.8825    3.7246 O.2       1 <0>        -0.4756
     23 N2         10.0789   -7.1457    3.9027 N.am      1 <0>        -0.6197
     24 H2         10.8677   -7.7099    3.8817 H         1 <0>         0.4156
     25 O2         12.6102   -5.6858    4.1152 O.3       1 <0>        -0.6860
     26 O3          7.8515   -1.6819    4.8581 O.3       1 <0>        -0.5548
     27 H3         -0.9591    1.9053    0.0259 H         1 <0>         0.1247
     28 H4          1.1563    3.1654    0.0076 H         1 <0>         0.1248
     29 H5          3.3051    1.9634   -0.0196 H         1 <0>         0.1219
     30 H6          1.2231   -1.7588   -0.0176 H         1 <0>         0.1223
     31 H7         -0.9258   -0.5567    0.0082 H         1 <0>         0.1250
     32 H8          3.5884   -1.6586   -0.5549 H         1 <0>         0.0833
     33 H9          4.4573   -0.1052   -0.5563 H         1 <0>         0.0828
     34 H10         4.2941   -0.0118    1.9163 H         1 <0>         0.0881
     35 H11         3.4252   -1.5652    1.9176 H         1 <0>         0.0884
     36 H12         5.3838   -2.6617    0.8639 H         1 <0>         0.1317
     37 H13         6.2527   -1.1082    0.8625 H         1 <0>         0.1309
     38 H14         6.0621   -1.0753    3.2393 H         1 <0>         0.4285
     39 H15         7.1076   -3.6247    2.2261 H         1 <0>         0.1405
     40 H16         7.9765   -2.0713    2.2247 H         1 <0>         0.1360
     41 H17        10.1903   -1.8885    4.3548 H         1 <0>         0.1130
     42 H18        12.3219   -3.1181    4.3241 H         1 <0>         0.1175
     43 H19         8.5021   -1.0938    4.4507 H         1 <0>         0.3836
     44 H20         5.2577   -2.5133    3.2406 H         1 <0>         0.4267
@<TRIPOS>BOND
     1    1    6 ar
     2    1    2 ar
     3    1   27 1
     4    2    3 ar
     5    2   28 1
     6    3    4 ar
     7    3   29 1
     8    4    5 ar
     9    4    7 1
    10    5    6 ar
    11    5   30 1
    12    6   31 1
    13    7    8 1
    14    7   32 1
    15    7   33 1
    16    8    9 1
    17    8   34 1
    18    8   35 1
    19    9   10 1
    20    9   36 1
    21    9   37 1
    22   10   11 1
    23   10   38 1
    24   10   44 1
    25   11   12 1
    26   11   39 1
    27   11   40 1
    28   12   13 1
    29   12   14 1
    30   12   26 1
    31   14   19 ar
    32   14   15 ar
    33   15   16 ar
    34   15   41 1
    35   16   17 ar
    36   16   42 1
    37   17   18 ar
    38   17   25 1
    39   18   23 1
    40   18   19 ar
    41   19   20 1
    42   20   21 1
    43   21   22 2
    44   21   23 am
    45   23   24 1
    46   26   43 1
@<TRIPOS>MOLECULE
CHEMBL1221588
   47    50     0     0     0
SMALL
USER_CHARGES

@<TRIPOS>ATOM
      1 C1          0.0103    1.4821   -0.3434 C.3       1 <0>        -0.1127
      2 C2          0.0150   -0.0134   -0.1576 C.2       1 <0>         0.1387
      3 C3         -1.0535   -0.8233   -0.2587 C.2       1 <0>        -0.3257
      4 C4         -0.6233   -2.1496   -0.0142 C.2       1 <0>         0.1743
      5 N1          0.6655   -2.1152    0.2241 N.2       1 <0>        -0.2853
      6 O1          1.0874   -0.7666    0.1316 O.3       1 <0>        -0.0596
      7 C5         -1.4787   -3.3626   -0.0250 C.ar      1 <0>        -0.0640
      8 C6         -1.0284   -4.5302   -0.6375 C.ar      1 <0>        -0.0802
      9 C7         -1.8279   -5.6552   -0.6447 C.ar      1 <0>        -0.1121
     10 C8         -3.0742   -5.6250   -0.0454 C.ar      1 <0>        -0.0885
     11 C9         -3.5262   -4.4685    0.5641 C.ar      1 <0>        -0.1121
     12 C10        -2.7325   -3.3394    0.5822 C.ar      1 <0>        -0.0989
     13 C11        -2.4627   -0.3941   -0.5763 C.3       1 <0>         0.0721
     14 N2         -2.6338   -0.3144   -2.0331 N.4       1 <0>        -0.5052
     15 C12        -4.0075    0.1039   -2.3427 C.3       1 <0>        -0.0472
     16 C13        -4.1856    0.1869   -3.8601 C.3       1 <0>         0.1629
     17 H1         -3.9952   -0.7910   -4.3023 H         1 <0>         0.1156
     18 C14        -5.5948    0.6161   -4.1777 C.ar      1 <0>        -0.2338
     19 C15        -5.8795    1.9508   -4.4095 C.ar      1 <0>        -0.0375
     20 C16        -7.1807    2.3222   -4.7000 C.ar      1 <0>        -0.2398
     21 C17        -8.1934    1.3882   -4.7617 C.ar      1 <0>         0.3005
     22 C18        -7.9310    0.0237   -4.5300 C.ar      1 <0>        -0.0289
     23 C19        -6.6022   -0.3168   -4.2440 C.ar      1 <0>        -0.0473
     24 S1         -6.6730   -2.0788   -4.0288 S.3       1 <0>        -0.1177
     25 C20        -8.4204   -2.2920   -4.3266 C.2       1 <0>         0.5373
     26 O2         -9.0758   -3.3177   -4.3158 O.2       1 <0>        -0.4760
     27 N3         -8.8327   -1.0295   -4.5548 N.am      1 <0>        -0.6199
     28 H2         -9.7671   -0.8573   -4.7503 H         1 <0>         0.4153
     29 O3         -9.4604    1.7892   -5.0493 O.3       1 <0>        -0.6860
     30 O4         -3.2653    1.1396   -4.3963 O.3       1 <0>        -0.5542
     31 H3          1.0202    1.8685   -0.2062 H         1 <0>         0.1037
     32 H4         -0.3372    1.7223   -1.3482 H         1 <0>         0.1021
     33 H5         -0.6556    1.9373    0.3898 H         1 <0>         0.1115
     34 H6         -0.0557   -4.5547   -1.1060 H         1 <0>         0.1306
     35 H7         -1.4800   -6.5607   -1.1195 H         1 <0>         0.1357
     36 H8         -3.6967   -6.5074   -0.0536 H         1 <0>         0.1348
     37 H9         -4.5000   -4.4502    1.0306 H         1 <0>         0.1368
     38 H10        -3.0845   -2.4383    1.0622 H         1 <0>         0.1287
     39 H11        -3.1647   -1.1208   -0.1673 H         1 <0>         0.1422
     40 H12        -2.6531    0.5837   -0.1341 H         1 <0>         0.1425
     41 H13        -1.9839    0.3582   -2.4118 H         1 <0>         0.4246
     42 H14        -4.7095   -0.6227   -1.9337 H         1 <0>         0.1426
     43 H15        -4.1979    1.0818   -1.9005 H         1 <0>         0.1389
     44 H16        -5.0961    2.6928   -4.3640 H         1 <0>         0.1131
     45 H17        -7.4071    3.3626   -4.8812 H         1 <0>         0.1173
     46 H18        -3.3768    2.0342   -4.0465 H         1 <0>         0.3831
     47 H19        -2.4575   -1.2197   -2.4425 H         1 <0>         0.4278
@<TRIPOS>BOND
     1    1    2 1
     2    1   31 1
     3    1   32 1
     4    1   33 1
     5    2    6 1
     6    2    3 2
     7    3    4 1
     8    3   13 1
     9    4    5 2
    10    4    7 1
    11    5    6 1
    12    7   12 ar
    13    7    8 ar
    14    8    9 ar
    15    8   34 1
    16    9   10 ar
    17    9   35 1
    18   10   11 ar
    19   10   36 1
    20   11   12 ar
    21   11   37 1
    22   12   38 1
    23   13   14 1
    24   13   39 1
    25   13   40 1
    26   14   15 1
    27   14   41 1
    28   14   47 1
    29   15   16 1
    30   15   42 1
    31   15   43 1
    32   16   17 1
    33   16   18 1
    34   16   30 1
    35   18   23 ar
    36   18   19 ar
    37   19   20 ar
    38   19   44 1
    39   20   21 ar
    40   20   45 1
    41   21   22 ar
    42   21   29 1
    43   22   27 1
    44   22   23 ar
    45   23   24 1
    46   24   25 1
    47   25   26 2
    48   25   27 am
    49   27   28 1
    50   30   46 1
@<TRIPOS>MOLECULE
CHEMBL1221588
   46    49     0     0     0
SMALL
USER_CHARGES

@<TRIPOS>ATOM
      1 C1         -0.0192    1.5012   -0.0965 C.3       1 <0>        -0.0892
      2 C2          0.0017   -0.0048   -0.0458 C.2       1 <0>         0.0763
      3 C3         -1.0758   -0.8088   -0.0640 C.2       1 <0>        -0.2344
      4 C4         -0.6242   -2.1490   -0.0015 C.2       1 <0>         0.1695
      5 N1          0.6856   -2.1283    0.0520 N.2       1 <0>        -0.3178
      6 O1          1.0992   -0.7743    0.0193 O.3       1 <0>        -0.0790
      7 C5         -1.4808   -3.3613    0.0032 C.ar      1 <0>        -0.0439
      8 C6         -2.5825   -3.4422   -0.8457 C.ar      1 <0>        -0.0781
      9 C7         -3.3756   -4.5717   -0.8372 C.ar      1 <0>        -0.1193
     10 C8         -3.0783   -5.6222    0.0121 C.ar      1 <0>        -0.1024
     11 C9         -1.9857   -5.5471    0.8570 C.ar      1 <0>        -0.1275
     12 C10        -1.1826   -4.4246    0.8526 C.ar      1 <0>        -0.0892
     13 C11        -2.5130   -0.3615   -0.1376 C.3       1 <0>         0.1274
     14 N2         -2.8854   -0.1395   -1.5412 N.3       1 <0>        -0.6803
     15 C12        -4.2832    0.2986   -1.6519 C.3       1 <0>         0.0322
     16 C13        -4.6334    0.5191   -3.1249 C.3       1 <0>         0.1764
     17 H1         -4.5003   -0.4133   -3.6735 H         1 <0>         0.1025
     18 C14        -6.0673    0.9685   -3.2385 C.ar      1 <0>        -0.2022
     19 C15        -6.3692    2.3173   -3.3134 C.ar      1 <0>        -0.0458
     20 C16        -7.6930    2.7073   -3.4177 C.ar      1 <0>        -0.2450
     21 C17        -8.7113    1.7779   -3.4482 C.ar      1 <0>         0.2916
     22 C18        -8.4317    0.3992   -3.3737 C.ar      1 <0>        -0.0408
     23 C19        -7.0808    0.0405   -3.2740 C.ar      1 <0>        -0.0467
     24 S1         -7.1363   -1.7341   -3.2140 S.3       1 <0>        -0.0962
     25 C20        -8.9075   -1.9278   -3.3281 C.2       1 <0>         0.5255
     26 O2         -9.5631   -2.9534   -3.3360 O.2       1 <0>        -0.4941
     27 N3         -9.3362   -0.6518   -3.3912 N.am      1 <0>        -0.6194
     28 H2        -10.2858   -0.4671   -3.4619 H         1 <0>         0.4088
     29 O3        -10.0007    2.1972   -3.5510 O.3       1 <0>        -0.7140
     30 O4         -3.7752    1.5213   -3.6737 O.3       1 <0>        -0.5572
     31 H3          1.0026    1.8798   -0.0716 H         1 <0>         0.0855
     32 H4         -0.5052    1.8271   -1.0161 H         1 <0>         0.0960
     33 H5         -0.5702    1.8860    0.7617 H         1 <0>         0.0945
     34 H6         -2.8157   -2.6224   -1.5090 H         1 <0>         0.1501
     35 H7         -4.2301   -4.6353   -1.4947 H         1 <0>         0.1328
     36 H8         -3.7018   -6.5040    0.0158 H         1 <0>         0.1253
     37 H9         -1.7581   -6.3702    1.5182 H         1 <0>         0.1254
     38 H10        -0.3271   -4.3689    1.5095 H         1 <0>         0.1229
     39 H11        -3.1553   -1.1305    0.2915 H         1 <0>         0.0857
     40 H12        -2.6338    0.5664    0.4215 H         1 <0>         0.0418
     41 H13        -2.2632    0.5225   -1.9801 H         1 <0>         0.3449
     42 H14        -4.9378   -0.4658   -1.2333 H         1 <0>         0.0847
     43 H15        -4.4163    1.2310   -1.1033 H         1 <0>         0.0356
     44 H16        -5.5817    3.0560   -3.2902 H         1 <0>         0.1101
     45 H17        -7.9329    3.7587   -3.4760 H         1 <0>         0.1102
     46 H18        -3.8410    2.3796   -3.2332 H         1 <0>         0.3666
@<TRIPOS>BOND
     1    1    2 1
     2    1   31 1
     3    1   32 1
     4    1   33 1
     5    2    6 1
     6    2    3 2
     7    3    4 1
     8    3   13 1
     9    4    5 2
    10    4    7 1
    11    5    6 1
    12    7   12 ar
    13    7    8 ar
    14    8    9 ar
    15    8   34 1
    16    9   10 ar
    17    9   35 1
    18   10   11 ar
    19   10   36 1
    20   11   12 ar
    21   11   37 1
    22   12   38 1
    23   13   14 1
    24   13   39 1
    25   13   40 1
    26   14   15 1
    27   14   41 1
    28   15   16 1
    29   15   42 1
    30   15   43 1
    31   16   17 1
    32   16   18 1
    33   16   30 1
    34   18   23 ar
    35   18   19 ar
    36   19   20 ar
    37   19   44 1
    38   20   21 ar
    39   20   45 1
    40   21   22 ar
    41   21   29 1
    42   22   27 1
    43   22   23 ar
    44   23   24 1
    45   24   25 1
    46   25   26 2
    47   25   27 am
    48   27   28 1
    49   30   46 1
@<TRIPOS>MOLECULE
CHEMBL462313
   39    41     0     0     0
SMALL
USER_CHARGES

@<TRIPOS>ATOM
      1 C1          0.0081    1.4938    0.2495 C.3       1 <0>        -0.1828
      2 C2          0.0073   -0.0315    0.1286 C.3       1 <0>         0.0140
      3 C3          0.6571   -0.6419    1.3720 C.3       1 <0>        -0.1850
      4 N1         -1.3758   -0.5128    0.0127 N.4       1 <0>        -0.5036
      5 C4         -1.3712   -1.9607   -0.2354 C.3       1 <0>        -0.0048
      6 H1         -0.7918   -2.4409    0.5531 H         1 <0>         0.1436
      7 C5         -0.6894   -2.2126   -1.5406 C.3       1 <0>        -0.1694
      8 C6          0.0150   -3.5369   -1.6028 C.3       1 <0>         0.1406
      9 N2         -0.9372   -4.6306   -1.7698 N.am      1 <0>        -0.5601
     10 C7         -2.0429   -4.8065   -0.8968 C.ar      1 <0>         0.0948
     11 C8         -2.8549   -3.9742   -0.1789 C.ar      1 <0>        -0.1186
     12 C9         -3.8581   -4.5383    0.6126 C.ar      1 <0>        -0.1023
     13 C10        -4.0921   -5.8978    0.5994 C.ar      1 <0>        -0.0923
     14 C11        -3.3731   -6.7147   -0.2511 C.ar      1 <0>        -0.0964
     15 C12        -2.3867   -6.1545   -1.0487 C.ar      1 <0>         0.1107
     16 N3         -1.6660   -6.6498   -2.1346 N.am      1 <0>        -0.6490
     17 H2         -1.6986   -7.5584   -2.4726 H         1 <0>         0.4419
     18 C13        -0.9160   -5.6475   -2.6329 C.2       1 <0>         0.7015
     19 O1         -0.3193   -5.6666   -3.6932 O.2       1 <0>        -0.5297
     20 C14        -2.7917   -2.4614   -0.1538 C.3       1 <0>         0.1493
     21 H3         -3.3571   -2.0653   -0.9973 H         1 <0>         0.1364
     22 O2         -3.3815   -1.9936    1.0608 O.3       1 <0>        -0.5424
     23 H4          1.0343    1.8509    0.3356 H         1 <0>         0.1085
     24 H5         -0.4549    1.9287   -0.6363 H         1 <0>         0.0831
     25 H6         -0.5546    1.7883    1.1354 H         1 <0>         0.0833
     26 H7          0.5700   -0.3260   -0.7572 H         1 <0>         0.1426
     27 H8          0.6566   -1.7285    1.2859 H         1 <0>         0.0784
     28 H9          1.6834   -0.2848    1.4580 H         1 <0>         0.1093
     29 H10         0.0945   -0.3474    2.2578 H         1 <0>         0.0846
     30 H11        -1.8720   -0.3200    0.8698 H         1 <0>         0.4313
     31 H12        -1.4337   -2.1755   -2.3360 H         1 <0>         0.1071
     32 H13         0.0400   -1.4209   -1.7118 H         1 <0>         0.1155
     33 H14         0.7079   -3.5343   -2.4442 H         1 <0>         0.1184
     34 H15         0.5750   -3.6879   -0.6800 H         1 <0>         0.0863
     35 H16        -4.4591   -3.9009    1.2443 H         1 <0>         0.1483
     36 H17        -4.8376   -6.3236    1.2547 H         1 <0>         0.1443
     37 H18        -3.5761   -7.7746   -0.2943 H         1 <0>         0.1427
     38 H19        -2.8815   -2.2251    1.8555 H         1 <0>         0.3908
     39 H20        -1.8327   -0.0417   -0.7537 H         1 <0>         0.4290
@<TRIPOS>BOND
     1    1    2 1
     2    1   23 1
     3    1   24 1
     4    1   25 1
     5    2    3 1
     6    2    4 1
     7    2   26 1
     8    3   27 1
     9    3   28 1
    10    3   29 1
    11    4    5 1
    12    4   30 1
    13    4   39 1
    14    5    6 1
    15    5   20 1
    16    5    7 1
    17    7    8 1
    18    7   31 1
    19    7   32 1
    20    8    9 1
    21    8   33 1
    22    8   34 1
    23    9   18 am
    24    9   10 1
    25   10   15 ar
    26   10   11 ar
    27   11   12 ar
    28   11   20 1
    29   12   13 ar
    30   12   35 1
    31   13   14 ar
    32   13   36 1
    33   14   15 ar
    34   14   37 1
    35   15   16 1
    36   16   17 1
    37   16   18 am
    38   18   19 2
    39   20   21 1
    40   20   22 1
    41   22   38 1
@<TRIPOS>MOLECULE
CHEMBL1221586
   52    56     0     0     0
SMALL
USER_CHARGES

@<TRIPOS>ATOM
      1 C1         -0.0167    1.3796    0.0096 C.ar      1 <0>        -0.0377
      2 C2          1.1829    2.0705    0.0019 C.ar      1 <0>        -0.2401
      3 C3          2.3903    1.4051   -0.0137 C.ar      1 <0>         0.3004
      4 C4          2.4377   -0.0032   -0.0217 C.ar      1 <0>        -0.0286
      5 C5          1.2054   -0.6693   -0.0130 C.ar      1 <0>        -0.0476
      6 C6          0.0021   -0.0041    0.0020 C.ar      1 <0>        -0.2334
      7 C7         -1.2907   -0.7785    0.0107 C.3       1 <0>         0.1623
      8 H1         -1.1640   -1.6905    0.5940 H         1 <0>         0.1150
      9 C8         -1.6778   -1.1407   -1.4245 C.3       1 <0>        -0.0459
     10 N1         -2.9380   -1.8956   -1.4160 N.4       1 <0>        -0.5070
     11 C9         -3.3097   -2.2434   -2.7940 C.3       1 <0>        -0.0028
     12 C10        -4.6222   -3.0297   -2.7852 C.3       1 <0>        -0.0771
     13 C11        -4.4444   -4.3098   -1.9664 C.3       1 <0>        -0.1191
     14 C12        -5.7568   -5.0961   -1.9576 C.3       1 <0>        -0.0828
     15 C13        -6.1440   -5.4583   -3.3928 C.3       1 <0>        -0.1133
     16 C14        -6.3219   -4.1782   -4.2116 C.3       1 <0>        -0.0854
     17 C15        -5.0094   -3.3919   -4.2204 C.3       1 <0>        -0.0988
     18 C16        -7.4251   -3.3220   -3.5864 C.3       1 <0>        -0.1130
     19 C17        -7.0379   -2.9598   -2.1512 C.3       1 <0>        -0.0827
     20 C18        -6.8600   -4.2400   -1.3324 C.3       1 <0>        -0.1147
     21 C19        -5.7254   -2.1735   -2.1600 C.3       1 <0>        -0.1181
     22 O1         -2.3211    0.0211    0.5946 O.3       1 <0>        -0.5548
     23 S1          1.6714   -2.3835   -0.0263 S.3       1 <0>        -0.1196
     24 C20         3.4422   -2.1558   -0.0424 C.2       1 <0>         0.5379
     25 O2          4.3192   -2.9998   -0.0552 O.2       1 <0>        -0.4758
     26 N2          3.5628   -0.8137   -0.0368 N.am      1 <0>        -0.6197
     27 H2          4.4451   -0.4107   -0.0434 H         1 <0>         0.4155
     28 O3          3.5491    2.1163   -0.0218 O.3       1 <0>        -0.6864
     29 H3         -0.9553    1.9136    0.0259 H         1 <0>         0.1130
     30 H4          1.1728    3.1505    0.0078 H         1 <0>         0.1174
     31 H5         -1.8046   -0.2287   -2.0078 H         1 <0>         0.1363
     32 H6         -0.8919   -1.7507   -1.8699 H         1 <0>         0.1408
     33 H7         -2.8207   -2.7399   -0.8761 H         1 <0>         0.4240
     34 H8         -3.4365   -1.3314   -3.3773 H         1 <0>         0.1319
     35 H9         -2.5238   -2.8533   -3.2394 H         1 <0>         0.1327
     36 H10        -3.6584   -4.9198   -2.4118 H         1 <0>         0.0797
     37 H11        -4.1685   -4.0518   -0.9439 H         1 <0>         0.0590
     38 H12        -5.6301   -6.0081   -1.3743 H         1 <0>         0.0794
     39 H13        -5.3581   -6.0683   -3.8382 H         1 <0>         0.0663
     40 H14        -7.0790   -6.0185   -3.3865 H         1 <0>         0.0690
     41 H15        -6.5977   -4.4362   -5.2340 H         1 <0>         0.0794
     42 H16        -5.1361   -2.4799   -4.8037 H         1 <0>         0.0737
     43 H17        -4.2235   -4.0018   -4.6658 H         1 <0>         0.0741
     44 H18        -7.5518   -2.4100   -4.1697 H         1 <0>         0.0659
     45 H19        -8.3601   -3.8822   -3.5801 H         1 <0>         0.0690
     46 H20        -7.8238   -2.3499   -1.7058 H         1 <0>         0.0791
     47 H21        -7.7951   -4.8001   -1.3261 H         1 <0>         0.0705
     48 H22        -6.5842   -3.9819   -0.3099 H         1 <0>         0.0644
     49 H23        -5.4496   -1.9155   -1.1375 H         1 <0>         0.0598
     50 H24        -5.8521   -1.2615   -2.7433 H         1 <0>         0.0784
     51 H25        -2.4884    0.8504    0.1263 H         1 <0>         0.3835
     52 H26        -3.6655   -1.3310   -1.0037 H         1 <0>         0.4261
@<TRIPOS>BOND
     1    1    6 ar
     2    1    2 ar
     3    1   29 1
     4    2    3 ar
     5    2   30 1
     6    3    4 ar
     7    3   28 1
     8    4   26 1
     9    4    5 ar
    10    5    6 ar
    11    5   23 1
    12    6    7 1
    13    7    8 1
    14    7    9 1
    15    7   22 1
    16    9   10 1
    17    9   31 1
    18    9   32 1
    19   10   11 1
    20   10   33 1
    21   10   52 1
    22   11   12 1
    23   11   34 1
    24   11   35 1
    25   12   17 1
    26   12   21 1
    27   12   13 1
    28   13   14 1
    29   13   36 1
    30   13   37 1
    31   14   20 1
    32   14   15 1
    33   14   38 1
    34   15   16 1
    35   15   39 1
    36   15   40 1
    37   16   17 1
    38   16   18 1
    39   16   41 1
    40   17   42 1
    41   17   43 1
    42   18   19 1
    43   18   44 1
    44   18   45 1
    45   19   20 1
    46   19   21 1
    47   19   46 1
    48   20   47 1
    49   20   48 1
    50   21   49 1
    51   21   50 1
    52   22   51 1
    53   23   24 1
    54   24   25 2
    55   24   26 am
    56   26   27 1
@<TRIPOS>MOLECULE
CHEMBL1221590
   47    49     0     0     0
SMALL
USER_CHARGES

@<TRIPOS>ATOM
      1 C1         -0.0187    1.5258    0.0104 C.3       1 <0>        -0.1815
      2 C2          0.0021   -0.0041    0.0020 C.3       1 <0>         0.0604
      3 C3          0.7421   -0.5109    1.2415 C.3       1 <0>        -0.1797
      4 C4         -1.4333   -0.5336    0.0129 C.3       1 <0>        -0.0912
      5 C5         -2.1387   -0.0476    1.2528 C.ar      1 <0>        -0.0957
      6 C6         -2.0930   -0.7979    2.4129 C.ar      1 <0>        -0.1106
      7 C7         -2.7400   -0.3521    3.5502 C.ar      1 <0>        -0.1158
      8 C8         -3.4324    0.8442    3.5275 C.ar      1 <0>        -0.1082
      9 C9         -3.4773    1.5948    2.3676 C.ar      1 <0>        -0.1152
     10 C10        -2.8267    1.1511    1.2315 C.ar      1 <0>        -0.1099
     11 N1          0.6897   -0.4778   -1.2066 N.4       1 <0>        -0.4992
     12 C11         2.0678    0.0307   -1.2170 C.3       1 <0>        -0.0527
     13 C12         2.7840   -0.4628   -2.4758 C.3       1 <0>         0.1640
     14 H1          2.2568   -0.1017   -3.3589 H         1 <0>         0.1148
     15 C13         4.1978    0.0589   -2.4865 C.ar      1 <0>        -0.2329
     16 C14         5.2310   -0.7233   -1.9999 C.ar      1 <0>        -0.0380
     17 C15         6.5217   -0.2243   -2.0199 C.ar      1 <0>        -0.2397
     18 C16         6.7935    1.0340   -2.5146 C.ar      1 <0>         0.3002
     19 C17         5.7607    1.8505   -3.0158 C.ar      1 <0>        -0.0294
     20 C18         4.4677    1.3112   -2.9848 C.ar      1 <0>        -0.0473
     21 S1          3.4732    2.6027   -3.6912 S.3       1 <0>        -0.1194
     22 C19         4.7813    3.7780   -3.9999 C.2       1 <0>         0.5375
     23 O1          4.7069    4.8898   -4.4900 O.2       1 <0>        -0.4761
     24 N2          5.8699    3.1285   -3.5427 N.am      1 <0>        -0.6195
     25 H2          6.7399    3.5543   -3.5938 H         1 <0>         0.4153
     26 O2          8.0737    1.4922   -2.5183 O.3       1 <0>        -0.6867
     27 O3          2.8033   -1.8916   -2.4837 O.3       1 <0>        -0.5546
     28 H3          1.0039    1.9031    0.0027 H         1 <0>         0.0860
     29 H4         -0.5459    1.8868   -0.8726 H         1 <0>         0.0821
     30 H5         -0.5289    1.8773    0.9072 H         1 <0>         0.1054
     31 H6          0.2319   -0.1594    2.1383 H         1 <0>         0.1054
     32 H7          0.7568   -1.6008    1.2356 H         1 <0>         0.0807
     33 H8          1.7647   -0.1336    1.2338 H         1 <0>         0.0850
     34 H9         -1.9605   -0.1726   -0.8702 H         1 <0>         0.0954
     35 H10        -1.4185   -1.6235    0.0069 H         1 <0>         0.0951
     36 H11        -1.5520   -1.7325    2.4307 H         1 <0>         0.1244
     37 H12        -2.7048   -0.9386    4.4564 H         1 <0>         0.1272
     38 H13        -3.9385    1.1921    4.4159 H         1 <0>         0.1268
     39 H14        -4.0185    2.5293    2.3498 H         1 <0>         0.1275
     40 H15        -2.8587    1.7394    0.3264 H         1 <0>         0.1250
     41 H16         0.7033   -1.4867   -1.2121 H         1 <0>         0.4266
     42 H17         2.0530    1.1205   -1.2110 H         1 <0>         0.1427
     43 H18         2.5950   -0.3304   -0.3340 H         1 <0>         0.1379
     44 H19         5.0323   -1.7104   -1.6093 H         1 <0>         0.1128
     45 H20         7.3307   -0.8311   -1.6409 H         1 <0>         0.1173
     46 H21         3.2576   -2.2830   -1.7250 H         1 <0>         0.3831
     47 H22         0.2017   -0.1436   -2.0240 H         1 <0>         0.4245
@<TRIPOS>BOND
     1    1    2 1
     2    1   28 1
     3    1   29 1
     4    1   30 1
     5    2    3 1
     6    2    4 1
     7    2   11 1
     8    3   31 1
     9    3   32 1
    10    3   33 1
    11    4    5 1
    12    4   34 1
    13    4   35 1
    14    5   10 ar
    15    5    6 ar
    16    6    7 ar
    17    6   36 1
    18    7    8 ar
    19    7   37 1
    20    8    9 ar
    21    8   38 1
    22    9   10 ar
    23    9   39 1
    24   10   40 1
    25   11   12 1
    26   11   41 1
    27   11   47 1
    28   12   13 1
    29   12   42 1
    30   12   43 1
    31   13   14 1
    32   13   15 1
    33   13   27 1
    34   15   20 ar
    35   15   16 ar
    36   16   17 ar
    37   16   44 1
    38   17   18 ar
    39   17   45 1
    40   18   19 ar
    41   18   26 1
    42   19   24 1
    43   19   20 ar
    44   20   21 1
    45   21   22 1
    46   22   23 2
    47   22   24 am
    48   24   25 1
    49   27   46 1
@<TRIPOS>MOLECULE
CHEMBL513389
   48    49     0     0     0
SMALL
USER_CHARGES

@<TRIPOS>ATOM
      1 C1         -0.0184    1.5028    0.0103 C.3       1 <0>        -0.1163
      2 C2          0.0021   -0.0041    0.0020 C.ar      1 <0>        -0.0984
      3 C3          0.0056   -0.6848   -1.2003 C.ar      1 <0>        -0.0818
      4 C4          0.0245   -2.0659   -1.2119 C.ar      1 <0>        -0.2059
      5 C5          0.0398   -2.7663   -0.0155 C.ar      1 <0>         0.1239
      6 C6          0.0361   -2.0811    1.1932 C.ar      1 <0>        -0.1176
      7 C7          0.0229   -0.6994    1.1996 C.ar      1 <0>        -0.0542
      8 C8          0.0285   -0.1944    2.6267 C.3       1 <0>        -0.0858
      9 C9         -0.3873   -1.4072    3.4860 C.3       1 <0>        -0.1226
     10 C10         0.0501   -2.5998    2.6150 C.3       1 <0>        -0.0723
     11 O1          0.0579   -4.1251   -0.0250 O.3       1 <0>        -0.3006
     12 C11         0.0602   -4.7650   -1.3027 C.3       1 <0>         0.0297
     13 C12         0.0814   -6.2830   -1.1129 C.3       1 <0>         0.0925
     14 C13         0.2095   -6.9657   -2.4761 C.3       1 <0>        -0.0119
     15 C14        -1.0413   -6.6795   -3.3094 C.3       1 <0>        -0.1952
     16 N1          0.3503   -8.4156   -2.2863 N.4       1 <0>        -0.5000
     17 C15         0.5930   -9.0581   -3.5849 C.3       1 <0>         0.0191
     18 C16         1.9390   -8.5902   -4.1418 C.3       1 <0>        -0.1855
     19 C17         0.6155  -10.5775   -3.4059 C.3       1 <0>        -0.1838
     20 O2         -1.1310   -6.7013   -0.4827 O.3       1 <0>        -0.5405
     21 H1          1.0042    1.8801    0.0026 H         1 <0>         0.0721
     22 H2         -0.5455    1.8639   -0.8728 H         1 <0>         0.0675
     23 H3         -0.5286    1.8543    0.9071 H         1 <0>         0.0688
     24 H4         -0.0066   -0.1371   -2.1311 H         1 <0>         0.1297
     25 H5          0.0269   -2.5991   -2.1511 H         1 <0>         0.1247
     26 H6          1.0274    0.1417    2.9050 H         1 <0>         0.0865
     27 H7         -0.6905    0.6164    2.7437 H         1 <0>         0.0817
     28 H8          0.1392   -1.4045    4.4404 H         1 <0>         0.0818
     29 H9         -1.4666   -1.4228    3.6377 H         1 <0>         0.0741
     30 H10        -0.6467   -3.4313    2.7212 H         1 <0>         0.0759
     31 H11         1.0567   -2.9109    2.8943 H         1 <0>         0.0780
     32 H12        -0.8365   -4.4802   -1.8533 H         1 <0>         0.0762
     33 H13         0.9433   -4.4564   -1.8621 H         1 <0>         0.0793
     34 H14         0.9301   -6.5591   -0.4871 H         1 <0>         0.1344
     35 H15         1.0875   -6.5802   -2.9945 H         1 <0>         0.1533
     36 H16        -1.1458   -5.6037   -3.4502 H         1 <0>         0.1096
     37 H17        -0.9500   -7.1659   -4.2806 H         1 <0>         0.0934
     38 H18        -1.9193   -7.0651   -2.7910 H         1 <0>         0.0882
     39 H19         1.1271   -8.6002   -1.6694 H         1 <0>         0.4281
     40 H20        -0.2019   -8.7858   -4.2792 H         1 <0>         0.1407
     41 H21         2.1191   -9.0670   -5.1053 H         1 <0>         0.1079
     42 H22         1.9230   -7.5078   -4.2693 H         1 <0>         0.0795
     43 H23         2.7339   -8.8625   -3.4475 H         1 <0>         0.0836
     44 H24        -0.3434  -10.9108   -3.0091 H         1 <0>         0.0826
     45 H25         0.7956  -11.0542   -4.3694 H         1 <0>         0.1079
     46 H26         1.4104  -10.8498   -2.7115 H         1 <0>         0.0826
     47 H27        -1.9293   -6.4877   -0.9850 H         1 <0>         0.3876
     48 H28        -0.4964   -8.7856   -1.8811 H         1 <0>         0.4312
@<TRIPOS>BOND
     1    1    2 1
     2    1   21 1
     3    1   22 1
     4    1   23 1
     5    2    7 ar
     6    2    3 ar
     7    3    4 ar
     8    3   24 1
     9    4    5 ar
    10    4   25 1
    11    5    6 ar
    12    5   11 1
    13    6   10 1
    14    6    7 ar
    15    7    8 1
    16    8    9 1
    17    8   26 1
    18    8   27 1
    19    9   10 1
    20    9   28 1
    21    9   29 1
    22   10   30 1
    23   10   31 1
    24   11   12 1
    25   12   13 1
    26   12   32 1
    27   12   33 1
    28   13   14 1
    29   13   20 1
    30   13   34 1
    31   14   15 1
    32   14   16 1
    33   14   35 1
    34   15   36 1
    35   15   37 1
    36   15   38 1
    37   16   17 1
    38   16   39 1
    39   16   48 1
    40   17   18 1
    41   17   19 1
    42   17   40 1
    43   18   41 1
    44   18   42 1
    45   18   43 1
    46   19   44 1
    47   19   45 1
    48   19   46 1
    49   20   47 1
@<TRIPOS>MOLECULE
CHEMBL513389
   48    49     0     0     0
SMALL
USER_CHARGES

@<TRIPOS>ATOM
      1 C1          1.8881    1.4684   -0.8707 C.3       1 <0>        -0.1172
      2 C2          1.5642    0.0063   -0.7021 C.ar      1 <0>        -0.0962
      3 C3          1.3921   -0.7925   -1.8164 C.ar      1 <0>        -0.0823
      4 C4          1.0953   -2.1329   -1.6659 C.ar      1 <0>        -0.2080
      5 C5          0.9706   -2.6742   -0.3955 C.ar      1 <0>         0.1193
      6 C6          1.1437   -1.8703    0.7245 C.ar      1 <0>        -0.1138
      7 C7          1.4460   -0.5311    0.5688 C.ar      1 <0>        -0.0520
      8 C8          1.5907    0.1219    1.9268 C.3       1 <0>        -0.0868
      9 C9          0.9238   -0.8553    2.9181 C.3       1 <0>        -0.1225
     10 C10         1.0629   -2.2094    2.1974 C.3       1 <0>        -0.0740
     11 O1          0.6782   -3.9928   -0.2455 O.3       1 <0>        -0.2909
     12 C11         0.5129   -4.7606   -1.4394 C.3       1 <0>         0.0116
     13 C12         0.1905   -6.2106   -1.0727 C.3       1 <0>         0.0925
     14 C13         0.1365   -7.0584   -2.3452 C.3       1 <0>        -0.0089
     15 C14        -0.3074   -8.4795   -1.9927 C.3       1 <0>        -0.1776
     16 N1         -0.8214   -6.4659   -3.2882 N.4       1 <0>        -0.5139
     17 C15        -0.7759   -7.2011   -4.5592 C.3       1 <0>         0.0187
     18 C16        -1.8793   -6.6865   -5.4858 C.3       1 <0>        -0.1850
     19 C17         0.5867   -6.9896   -5.2222 C.3       1 <0>        -0.1860
     20 O2         -1.0746   -6.2645   -0.4104 O.3       1 <0>        -0.5221
     21 H1          2.9696    1.5986   -0.9121 H         1 <0>         0.0732
     22 H2          1.4424    1.8351   -1.7954 H         1 <0>         0.0677
     23 H3          1.4868    2.0292   -0.0266 H         1 <0>         0.0697
     24 H4          1.4895   -0.3686   -2.8049 H         1 <0>         0.1299
     25 H5          0.9602   -2.7582   -2.5360 H         1 <0>         0.1203
     26 H6          2.6444    0.2509    2.1741 H         1 <0>         0.0877
     27 H7          1.0777    1.0835    1.9407 H         1 <0>         0.0824
     28 H8          1.4530   -0.8619    3.8710 H         1 <0>         0.0830
     29 H9         -0.1279   -0.6062    3.0594 H         1 <0>         0.0744
     30 H10         0.1967   -2.8415    2.3931 H         1 <0>         0.0772
     31 H11         1.9766   -2.7075    2.5215 H         1 <0>         0.0800
     32 H12        -0.3043   -4.3445   -2.0287 H         1 <0>         0.0551
     33 H13         1.4336   -4.7292   -2.0219 H         1 <0>         0.0846
     34 H14         0.9643   -6.5985   -0.4102 H         1 <0>         0.1564
     35 H15         1.1252   -7.0897   -2.8031 H         1 <0>         0.1549
     36 H16        -0.4005   -9.0681   -2.9054 H         1 <0>         0.0854
     37 H17         0.4326   -8.9394   -1.3377 H         1 <0>         0.1111
     38 H18        -1.2707   -8.4435   -1.4838 H         1 <0>         0.0925
     39 H19        -1.7517   -6.5203   -2.9013 H         1 <0>         0.4248
     40 H20        -0.9267   -8.2638   -4.3698 H         1 <0>         0.1453
     41 H21        -1.7909   -7.1691   -6.4591 H         1 <0>         0.1099
     42 H22        -2.8532   -6.9161   -5.0535 H         1 <0>         0.0841
     43 H23        -1.7799   -5.6076   -5.6049 H         1 <0>         0.0807
     44 H24         1.3728   -7.3562   -4.5621 H         1 <0>         0.0815
     45 H25         0.6204   -7.5351   -6.1653 H         1 <0>         0.1101
     46 H26         0.7375   -5.9268   -5.4116 H         1 <0>         0.0821
     47 H27        -1.8114   -5.9341   -0.9424 H         1 <0>         0.3691
     48 H28        -0.5803   -5.4995   -3.4498 H         1 <0>         0.4219
@<TRIPOS>BOND
     1    1    2 1
     2    1   21 1
     3    1   22 1
     4    1   23 1
     5    2    7 ar
     6    2    3 ar
     7    3    4 ar
     8    3   24 1
     9    4    5 ar
    10    4   25 1
    11    5    6 ar
    12    5   11 1
    13    6   10 1
    14    6    7 ar
    15    7    8 1
    16    8    9 1
    17    8   26 1
    18    8   27 1
    19    9   10 1
    20    9   28 1
    21    9   29 1
    22   10   30 1
    23   10   31 1
    24   11   12 1
    25   12   13 1
    26   12   32 1
    27   12   33 1
    28   13   14 1
    29   13   20 1
    30   13   34 1
    31   14   15 1
    32   14   16 1
    33   14   35 1
    34   15   36 1
    35   15   37 1
    36   15   38 1
    37   16   17 1
    38   16   39 1
    39   16   48 1
    40   17   18 1
    41   17   19 1
    42   17   40 1
    43   18   41 1
    44   18   42 1
    45   18   43 1
    46   19   44 1
    47   19   45 1
    48   19   46 1
    49   20   47 1
@<TRIPOS>MOLECULE
CHEMBL513389
   48    49     0     0     0
SMALL
USER_CHARGES

@<TRIPOS>ATOM
      1 C1         -0.0184    1.5028    0.0103 C.3       1 <0>        -0.1171
      2 C2          0.0021   -0.0041    0.0020 C.ar      1 <0>        -0.0964
      3 C3          0.0056   -0.6848   -1.2003 C.ar      1 <0>        -0.0824
      4 C4          0.0245   -2.0659   -1.2119 C.ar      1 <0>        -0.2079
      5 C5          0.0398   -2.7663   -0.0155 C.ar      1 <0>         0.1197
      6 C6          0.0361   -2.0811    1.1932 C.ar      1 <0>        -0.1141
      7 C7          0.0229   -0.6994    1.1996 C.ar      1 <0>        -0.0523
      8 C8          0.0285   -0.1944    2.6267 C.3       1 <0>        -0.0865
      9 C9         -0.3873   -1.4072    3.4860 C.3       1 <0>        -0.1228
     10 C10         0.0501   -2.5998    2.6150 C.3       1 <0>        -0.0735
     11 O1          0.0579   -4.1251   -0.0250 O.3       1 <0>        -0.2919
     12 C11         0.0602   -4.7650   -1.3027 C.3       1 <0>         0.0130
     13 C12         0.0814   -6.2830   -1.1129 C.3       1 <0>         0.0921
     14 C13        -0.0419   -6.9691   -2.4749 C.3       1 <0>        -0.0088
     15 C14        -0.0206   -8.4871   -2.2850 C.3       1 <0>        -0.1772
     16 N1          1.0831   -6.5667   -3.3295 N.4       1 <0>        -0.5134
     17 C15         0.9020   -7.1291   -4.6744 C.3       1 <0>         0.0194
     18 C16        -0.3393   -6.5123   -5.3222 C.3       1 <0>        -0.1861
     19 C17         2.1321   -6.8154   -5.5284 C.3       1 <0>        -0.1850
     20 O2          1.3108   -6.6686   -0.4949 O.3       1 <0>        -0.5225
     21 H1          1.0042    1.8801    0.0026 H         1 <0>         0.0728
     22 H2         -0.5455    1.8639   -0.8728 H         1 <0>         0.0679
     23 H3         -0.5286    1.8543    0.9071 H         1 <0>         0.0697
     24 H4         -0.0066   -0.1371   -2.1311 H         1 <0>         0.1298
     25 H5          0.0269   -2.5991   -2.1511 H         1 <0>         0.1209
     26 H6          1.0274    0.1417    2.9050 H         1 <0>         0.0874
     27 H7         -0.6905    0.6164    2.7437 H         1 <0>         0.0825
     28 H8          0.1392   -1.4045    4.4404 H         1 <0>         0.0828
     29 H9         -1.4666   -1.4228    3.6377 H         1 <0>         0.0747
     30 H10        -0.6467   -3.4313    2.7212 H         1 <0>         0.0767
     31 H11         1.0567   -2.9109    2.8943 H         1 <0>         0.0799
     32 H12        -0.8365   -4.4802   -1.8533 H         1 <0>         0.0848
     33 H13         0.9433   -4.4564   -1.8621 H         1 <0>         0.0555
     34 H14        -0.7533   -6.5816   -0.4787 H         1 <0>         0.1564
     35 H15        -0.9796   -6.6750   -2.9463 H         1 <0>         0.1550
     36 H16        -0.8554   -8.7857   -1.6509 H         1 <0>         0.1110
     37 H17        -0.1085   -8.9759   -3.2553 H         1 <0>         0.0859
     38 H18         0.9171   -8.7812   -1.8136 H         1 <0>         0.0914
     39 H19         1.1179   -5.5600   -3.3878 H         1 <0>         0.4218
     40 H20         0.7755   -8.2094   -4.6025 H         1 <0>         0.1451
     41 H21        -0.4737   -6.9297   -6.3202 H         1 <0>         0.1101
     42 H22        -1.2157   -6.7358   -4.7139 H         1 <0>         0.0816
     43 H23        -0.2128   -5.4321   -5.3942 H         1 <0>         0.0822
     44 H24         3.0165   -7.2548   -5.0668 H         1 <0>         0.0833
     45 H25         1.9977   -7.2327   -6.5263 H         1 <0>         0.1099
     46 H26         2.2586   -5.7352   -5.6003 H         1 <0>         0.0816
     47 H27         2.0981   -6.4338   -1.0050 H         1 <0>         0.3679
     48 H28         1.9455   -6.9107   -2.9344 H         1 <0>         0.4250
@<TRIPOS>BOND
     1    1    2 1
     2    1   21 1
     3    1   22 1
     4    1   23 1
     5    2    7 ar
     6    2    3 ar
     7    3    4 ar
     8    3   24 1
     9    4    5 ar
    10    4   25 1
    11    5    6 ar
    12    5   11 1
    13    6   10 1
    14    6    7 ar
    15    7    8 1
    16    8    9 1
    17    8   26 1
    18    8   27 1
    19    9   10 1
    20    9   28 1
    21    9   29 1
    22   10   30 1
    23   10   31 1
    24   11   12 1
    25   12   13 1
    26   12   32 1
    27   12   33 1
    28   13   14 1
    29   13   20 1
    30   13   34 1
    31   14   15 1
    32   14   16 1
    33   14   35 1
    34   15   36 1
    35   15   37 1
    36   15   38 1
    37   16   17 1
    38   16   39 1
    39   16   48 1
    40   17   18 1
    41   17   19 1
    42   17   40 1
    43   18   41 1
    44   18   42 1
    45   18   43 1
    46   19   44 1
    47   19   45 1
    48   19   46 1
    49   20   47 1
@<TRIPOS>MOLECULE
CHEMBL513389
   48    49     0     0     0
SMALL
USER_CHARGES

@<TRIPOS>ATOM
      1 C1          0.3638    1.6381   -0.3209 C.3       1 <0>        -0.1163
      2 C2          0.2376    0.1373   -0.2695 C.ar      1 <0>        -0.0984
      3 C3          0.4690   -0.6113   -1.4076 C.ar      1 <0>        -0.0818
      4 C4          0.3544   -1.9870   -1.3644 C.ar      1 <0>        -0.2058
      5 C5          0.0071   -2.6141   -0.1776 C.ar      1 <0>         0.1239
      6 C6         -0.2255   -1.8607    0.9664 C.ar      1 <0>        -0.1176
      7 C7         -0.1042   -0.4851    0.9196 C.ar      1 <0>        -0.0542
      8 C8         -0.3990    0.1012    2.2837 C.3       1 <0>        -0.0858
      9 C9         -1.1298   -1.0181    3.0552 C.3       1 <0>        -0.1226
     10 C10        -0.6115   -2.2935    2.3645 C.3       1 <0>        -0.0719
     11 O1         -0.1065   -3.9676   -0.1333 O.3       1 <0>        -0.3006
     12 C11         0.1461   -4.6798   -1.3461 C.3       1 <0>         0.0298
     13 C12        -0.0290   -6.1801   -1.1024 C.3       1 <0>         0.0925
     14 C13         0.1186   -6.9325   -2.4264 C.3       1 <0>        -0.0119
     15 C14         1.5479   -6.7712   -2.9481 C.3       1 <0>        -0.1950
     16 N1         -0.1673   -8.3577   -2.2143 N.4       1 <0>        -0.5000
     17 C15        -0.1613   -9.0560   -3.5067 C.3       1 <0>         0.0188
     18 C16        -0.3032  -10.5615   -3.2736 C.3       1 <0>        -0.1839
     19 C17        -1.3302   -8.5597   -4.3600 C.3       1 <0>        -0.1854
     20 O2          0.9674   -6.6329   -0.1836 O.3       1 <0>        -0.5405
     21 H1          1.3890    1.9248   -0.0867 H         1 <0>         0.0722
     22 H2          0.1073    1.9903   -1.3200 H         1 <0>         0.0675
     23 H3         -0.3136    2.0848    0.4069 H         1 <0>         0.0687
     24 H4          0.7391   -0.1206   -2.3311 H         1 <0>         0.1298
     25 H5          0.5346   -2.5732   -2.2534 H         1 <0>         0.1247
     26 H6          0.5291    0.3659    2.7903 H         1 <0>         0.0867
     27 H7         -1.0416    0.9765    2.1883 H         1 <0>         0.0816
     28 H8         -0.8557   -1.0043    4.1101 H         1 <0>         0.0819
     29 H9         -2.2095   -0.9317    2.9331 H         1 <0>         0.0739
     30 H10        -1.3912   -3.0541    2.3232 H         1 <0>         0.0747
     31 H11         0.2604   -2.6731    2.8972 H         1 <0>         0.0789
     32 H12        -0.5558   -4.3520   -2.1129 H         1 <0>         0.0792
     33 H13         1.1653   -4.4821   -1.6781 H         1 <0>         0.0763
     34 H14        -1.0189   -6.3676   -0.6864 H         1 <0>         0.1344
     35 H15        -0.5823   -6.5259   -3.1555 H         1 <0>         0.1531
     36 H16         1.6684   -7.3516   -3.8629 H         1 <0>         0.0931
     37 H17         1.7419   -5.7192   -3.1570 H         1 <0>         0.1098
     38 H18         2.2516   -7.1281   -2.1960 H         1 <0>         0.0881
     39 H19         0.5383   -8.7564   -1.6132 H         1 <0>         0.4313
     40 H20         0.7770   -8.8553   -4.0237 H         1 <0>         0.1408
     41 H21        -0.3870  -11.0714   -4.2333 H         1 <0>         0.1079
     42 H22         0.5733  -10.9309   -2.7412 H         1 <0>         0.0833
     43 H23        -1.1969  -10.7546   -2.6802 H         1 <0>         0.0821
     44 H24        -1.2291   -7.4872   -4.5261 H         1 <0>         0.0793
     45 H25        -1.3257   -9.0778   -5.3190 H         1 <0>         0.1079
     46 H26        -2.2685   -8.7604   -3.8429 H         1 <0>         0.0837
     47 H27         1.8748   -6.4974   -0.4892 H         1 <0>         0.3875
     48 H28        -1.0734   -8.4582   -1.7819 H         1 <0>         0.4281
@<TRIPOS>BOND
     1    1    2 1
     2    1   21 1
     3    1   22 1
     4    1   23 1
     5    2    7 ar
     6    2    3 ar
     7    3    4 ar
     8    3   24 1
     9    4    5 ar
    10    4   25 1
    11    5    6 ar
    12    5   11 1
    13    6   10 1
    14    6    7 ar
    15    7    8 1
    16    8    9 1
    17    8   26 1
    18    8   27 1
    19    9   10 1
    20    9   28 1
    21    9   29 1
    22   10   30 1
    23   10   31 1
    24   11   12 1
    25   12   13 1
    26   12   32 1
    27   12   33 1
    28   13   14 1
    29   13   20 1
    30   13   34 1
    31   14   15 1
    32   14   16 1
    33   14   35 1
    34   15   36 1
    35   15   37 1
    36   15   38 1
    37   16   17 1
    38   16   39 1
    39   16   48 1
    40   17   18 1
    41   17   19 1
    42   17   40 1
    43   18   41 1
    44   18   42 1
    45   18   43 1
    46   19   44 1
    47   19   45 1
    48   19   46 1
    49   20   47 1
@<TRIPOS>MOLECULE
CHEMBL554785
   35    37     0     0     0
SMALL
USER_CHARGES

@<TRIPOS>ATOM
      1 C1          0.0286    1.5033    0.0105 C.3       1 <0>        -0.0833
      2 C2          0.0417   -0.0036    0.0021 C.2       1 <0>        -0.0210
      3 C3          0.0608   -0.8019   -1.0920 C.2       1 <0>         0.0314
      4 N1          0.0672   -2.0732   -0.6894 N.2       1 <0>        -0.4694
      5 C4          0.0528   -2.1095    0.6316 C.2       1 <0>         0.1274
      6 N2          0.0425   -0.8176    1.0921 N.pl3     1 <0>        -0.3259
      7 C5          0.0321   -0.5896    2.4438 C.2       1 <0>        -0.0466
      8 C6          0.0355   -1.6293    3.3008 C.2       1 <0>         0.1244
      9 N3          0.0494   -2.8924    2.8622 N.2       1 <0>        -0.5334
     10 C7          0.0510   -3.1689    1.5738 C.2       1 <0>         0.4790
     11 N4          0.0667   -4.4860    1.1429 N.pl3     1 <0>        -0.6028
     12 C8          0.2056   -5.5937    2.1009 C.3       1 <0>         0.0996
     13 C9         -0.9030   -6.6152    1.8263 C.3       1 <0>        -0.0212
     14 N5         -0.8531   -7.0232    0.4167 N.4       1 <0>        -0.5062
     15 C10        -1.1519   -5.8742   -0.4474 C.3       1 <0>        -0.0200
     16 C11        -0.0612   -4.8163   -0.2850 C.3       1 <0>         0.0771
     17 C12         0.0239   -1.3632    4.7841 C.3       1 <0>        -0.0965
     18 H1          1.0531    1.8755    0.0183 H         1 <0>         0.0826
     19 H2         -0.4833    1.8671   -0.8804 H         1 <0>         0.0941
     20 H3         -0.4934    1.8572    0.8995 H         1 <0>         0.0709
     21 H4          0.0690   -0.4653   -2.1181 H         1 <0>         0.1922
     22 H5          0.0215    0.4222    2.8214 H         1 <0>         0.1737
     23 H6          1.1793   -6.0671    1.9748 H         1 <0>         0.0939
     24 H7          0.1091   -5.2129    3.1176 H         1 <0>         0.1408
     25 H8         -0.7586   -7.4882    2.4627 H         1 <0>         0.1471
     26 H9         -1.8726   -6.1656    2.0405 H         1 <0>         0.1344
     27 H10         0.0683   -7.3736    0.2016 H         1 <0>         0.4288
     28 H11        -1.1907   -6.2013   -1.4865 H         1 <0>         0.1484
     29 H12        -2.1139   -5.4471   -0.1645 H         1 <0>         0.1329
     30 H13        -0.3340   -3.9217   -0.8448 H         1 <0>         0.1670
     31 H14         0.8851   -5.2098   -0.6561 H         1 <0>         0.0943
     32 H15        -1.0064   -1.3078    5.1353 H         1 <0>         0.0852
     33 H16         0.5414   -2.1707    5.3021 H         1 <0>         0.0851
     34 H17         0.5285   -0.4188    4.9878 H         1 <0>         0.0829
     35 H18        -1.5333   -7.7506    0.2541 H         1 <0>         0.4334
@<TRIPOS>BOND
     1    1    2 1
     2    1   18 1
     3    1   19 1
     4    1   20 1
     5    2    6 1
     6    2    3 2
     7    3    4 1
     8    3   21 1
     9    4    5 2
    10    5   10 1
    11    5    6 1
    12    6    7 1
    13    7    8 2
    14    7   22 1
    15    8    9 1
    16    8   17 1
    17    9   10 2
    18   10   11 1
    19   11   16 1
    20   11   12 1
    21   12   13 1
    22   12   23 1
    23   12   24 1
    24   13   14 1
    25   13   25 1
    26   13   26 1
    27   14   15 1
    28   14   27 1
    29   14   35 1
    30   15   16 1
    31   15   28 1
    32   15   29 1
    33   16   30 1
    34   16   31 1
    35   17   32 1
    36   17   33 1
    37   17   34 1
@<TRIPOS>MOLECULE
CHEMBL349978
   55    57     0     0     0
SMALL
USER_CHARGES

@<TRIPOS>ATOM
      1 C1         -0.0173    1.4248    0.0099 C.3       1 <0>         0.0227
      2 O1          0.0021   -0.0041    0.0020 O.3       1 <0>        -0.3167
      3 C2          0.6263   -0.6189    1.0423 C.ar      1 <0>         0.1254
      4 C3          1.2020    0.1362    2.0507 C.ar      1 <0>        -0.2027
      5 C4          1.8368   -0.4902    3.1075 C.ar      1 <0>        -0.0695
      6 C5          1.8987   -1.8703    3.1618 C.ar      1 <0>        -0.1478
      7 C6          1.3263   -2.6311    2.1598 C.ar      1 <0>        -0.0776
      8 C7          0.6832   -2.0097    1.0992 C.ar      1 <0>         0.1132
      9 N1          0.0978   -2.7779    0.0862 N.pl3     1 <0>        -0.6640
     10 C8          0.8694   -3.1800   -1.1000 C.3       1 <0>         0.1220
     11 C9          0.0615   -2.8181   -2.3506 C.3       1 <0>        -0.0234
     12 N2         -1.2733   -3.4235   -2.2621 N.4       1 <0>        -0.5025
     13 C10        -2.0117   -2.8434   -1.1332 C.3       1 <0>         0.0030
     14 C11        -1.3049   -3.2113    0.1804 C.3       1 <0>         0.1333
     15 C12        -3.4372   -3.3988   -1.1166 C.3       1 <0>         0.1018
     16 N3         -4.0708   -3.1567   -2.4151 N.am      1 <0>        -0.7614
     17 C13        -5.3372   -3.5630   -2.6332 C.2       1 <0>         0.5822
     18 O2         -5.9539   -4.1304   -1.7522 O.2       1 <0>        -0.5431
     19 C14        -5.9752   -3.3192   -3.9408 C.ar      1 <0>        -0.2792
     20 C15        -5.2656   -2.6721   -4.9566 C.ar      1 <0>        -0.0435
     21 C16        -5.8633   -2.4465   -6.1754 C.ar      1 <0>        -0.1930
     22 C17        -7.1735   -2.8617   -6.3972 C.ar      1 <0>         0.3224
     23 C18        -7.8831   -3.5060   -5.3875 C.ar      1 <0>        -0.2684
     24 C19        -7.2887   -3.7400   -4.1686 C.ar      1 <0>         0.0077
     25 N4         -7.7748   -2.6319   -7.6297 N.2       1 <0>        -1.0845
     26 S1         -9.3332   -3.1250   -7.8954 S.o2      1 <0>         2.5320
     27 O3         -9.2869   -4.5419   -7.7976 O.2       1 <0>        -1.0216
     28 O4        -10.1150   -2.3614   -6.9871 O.2       1 <0>        -1.0210
     29 C20        -9.6949   -2.6280   -9.6021 C.3       1 <0>        -0.6368
     30 H1          1.0053    1.8021    0.0021 H         1 <0>         0.0584
     31 H2         -0.5445    1.7859   -0.8732 H         1 <0>         0.1031
     32 H3         -0.5275    1.7763    0.9067 H         1 <0>         0.0593
     33 H4          1.1555    1.2145    2.0114 H         1 <0>         0.1326
     34 H5          2.2858    0.1003    3.8925 H         1 <0>         0.1303
     35 H6          2.3959   -2.3551    3.9890 H         1 <0>         0.1303
     36 H7          1.3765   -3.7090    2.2044 H         1 <0>         0.1319
     37 H8          1.8223   -2.6510   -1.1137 H         1 <0>         0.1132
     38 H9          1.0445   -4.2556   -1.0757 H         1 <0>         0.0788
     39 H10        -0.0347   -1.7346   -2.4201 H         1 <0>         0.1354
     40 H11         0.5736   -3.1951   -3.2359 H         1 <0>         0.1394
     41 H12        -1.7781   -3.2485   -3.1180 H         1 <0>         0.4257
     42 H13        -2.0452   -1.7591   -1.2396 H         1 <0>         0.1498
     43 H14        -1.3456   -4.2900    0.3318 H         1 <0>         0.0838
     44 H15        -1.7901   -2.7030    1.0136 H         1 <0>         0.1163
     45 H16        -3.4072   -4.4707   -0.9211 H         1 <0>         0.0918
     46 H17        -4.0113   -2.9027   -0.3340 H         1 <0>         0.1094
     47 H18        -3.5788   -2.7040   -3.1179 H         1 <0>         0.3897
     48 H19        -4.2494   -2.3492   -4.7849 H         1 <0>         0.0959
     49 H20        -5.3156   -1.9467   -6.9606 H         1 <0>         0.1185
     50 H21        -8.8994   -3.8265   -5.5624 H         1 <0>         0.1113
     51 H22        -7.8381   -4.2441   -3.3872 H         1 <0>         0.1165
     52 H23        -8.9958   -3.1186  -10.2793 H         1 <0>         0.1178
     53 H24       -10.7136   -2.9199   -9.8574 H         1 <0>         0.1074
     54 H25        -9.5927   -1.5468   -9.6950 H         1 <0>         0.1180
     55 H26        -1.1814   -4.4190   -2.1262 H         1 <0>         0.4267
@<TRIPOS>BOND
     1    1    2 1
     2    1   30 1
     3    1   31 1
     4    1   32 1
     5    2    3 1
     6    3    8 ar
     7    3    4 ar
     8    4    5 ar
     9    4   33 1
    10    5    6 ar
    11    5   34 1
    12    6    7 ar
    13    6   35 1
    14    7    8 ar
    15    7   36 1
    16    8    9 1
    17    9   14 1
    18    9   10 1
    19   10   11 1
    20   10   37 1
    21   10   38 1
    22   11   12 1
    23   11   39 1
    24   11   40 1
    25   12   13 1
    26   12   41 1
    27   12   55 1
    28   13   14 1
    29   13   15 1
    30   13   42 1
    31   14   43 1
    32   14   44 1
    33   15   16 1
    34   15   45 1
    35   15   46 1
    36   16   17 am
    37   16   47 1
    38   17   18 2
    39   17   19 1
    40   19   24 ar
    41   19   20 ar
    42   20   21 ar
    43   20   48 1
    44   21   22 ar
    45   21   49 1
    46   22   23 ar
    47   22   25 1
    48   23   24 ar
    49   23   50 1
    50   24   51 1
    51   25   26 1
    52   26   27 2
    53   26   28 2
    54   26   29 1
    55   29   52 1
    56   29   53 1
    57   29   54 1
@<TRIPOS>MOLECULE
CHEMBL349978
   54    56     0     0     0
SMALL
USER_CHARGES

@<TRIPOS>ATOM
      1 C1         -0.0173    1.4248    0.0099 C.3       1 <0>         0.0255
      2 O1          0.0021   -0.0041    0.0020 O.3       1 <0>        -0.3031
      3 C2          0.6063   -0.6076   -1.0566 C.ar      1 <0>         0.1190
      4 C3          1.1727    0.1584   -2.0619 C.ar      1 <0>        -0.2077
      5 C4          1.7862   -0.4565   -3.1379 C.ar      1 <0>        -0.0859
      6 C5          1.8369   -1.8361   -3.2138 C.ar      1 <0>        -0.1530
      7 C6          1.2745   -2.6077   -2.2144 C.ar      1 <0>        -0.0868
      8 C7          0.6620   -1.9977   -1.1294 C.ar      1 <0>         0.1416
      9 N1          0.0968   -2.7768   -0.1132 N.pl3     1 <0>        -0.6682
     10 C8         -1.3056   -3.2137   -0.1884 C.3       1 <0>         0.1531
     11 C9         -2.0009   -2.8467    1.1270 C.3       1 <0>         0.0436
     12 N2         -1.2370   -3.4016    2.2523 N.3       1 <0>        -0.6802
     13 C10         0.1078   -2.8148    2.3243 C.3       1 <0>         0.0642
     14 C11         0.8913   -3.1855    1.0551 C.3       1 <0>         0.1621
     15 C12         0.8388   -3.3626    3.5517 C.3       1 <0>         0.1295
     16 N3          0.0312   -3.1203    4.7497 N.am      1 <0>        -0.7367
     17 C13         0.4787   -3.5204    5.9564 C.2       1 <0>         0.5760
     18 O2          1.5528   -4.0825    6.0507 O.2       1 <0>        -0.5625
     19 C14        -0.3347   -3.2764    7.1627 C.ar      1 <0>        -0.2612
     20 C15        -1.5724   -2.6355    7.0552 C.ar      1 <0>        -0.0409
     21 C16        -2.3289   -2.4098    8.1822 C.ar      1 <0>        -0.1953
     22 C17        -1.8627   -2.8186    9.4287 C.ar      1 <0>         0.3137
     23 C18        -0.6303   -3.4566    9.5392 C.ar      1 <0>        -0.2710
     24 C19         0.1281   -3.6908    8.4151 C.ar      1 <0>         0.0012
     25 N4         -2.6293   -2.5886   10.5657 N.2       1 <0>        -1.0905
     26 S1         -2.0763   -3.0741   12.0493 S.o2      1 <0>         2.5279
     27 O3         -2.0082   -4.4909   11.9650 O.2       1 <0>        -1.0252
     28 O4         -0.9022   -2.3041   12.2684 O.2       1 <0>        -1.0256
     29 C20        -3.3746   -2.5793   13.2155 C.3       1 <0>        -0.6376
     30 H1          1.0053    1.8021    0.0021 H         1 <0>         0.0536
     31 H2         -0.5445    1.7859   -0.8732 H         1 <0>         0.0526
     32 H3         -0.5275    1.7763    0.9067 H         1 <0>         0.0987
     33 H4          1.1348    1.2363   -2.0057 H         1 <0>         0.1261
     34 H5          2.2267    0.1425   -3.9212 H         1 <0>         0.1226
     35 H6          2.3168   -2.3119   -4.0562 H         1 <0>         0.1231
     36 H7          1.3151   -3.6852   -2.2764 H         1 <0>         0.1290
     37 H8         -1.8021   -2.7100   -1.0179 H         1 <0>         0.0661
     38 H9         -1.3456   -4.2930   -0.3350 H         1 <0>         0.0565
     39 H10        -2.0515   -1.7620    1.2213 H         1 <0>         0.0363
     40 H11        -3.0095   -3.2602    1.1329 H         1 <0>         0.0782
     41 H12        -1.7328   -3.2772    3.1222 H         1 <0>         0.3420
     42 H13         0.0278   -1.7305    2.4020 H         1 <0>         0.0510
     43 H14         1.0584   -4.2622    1.0257 H         1 <0>         0.0610
     44 H15         1.8480   -2.6633    1.0481 H         1 <0>         0.0700
     45 H16         0.9981   -4.4342    3.4314 H         1 <0>         0.0729
     46 H17         1.8013   -2.8616    3.6549 H         1 <0>         0.0672
     47 H18        -0.8257   -2.6720    4.6744 H         1 <0>         0.3926
     48 H19        -1.9343   -2.3176    6.0885 H         1 <0>         0.1027
     49 H20        -3.2852   -1.9147    8.0998 H         1 <0>         0.1157
     50 H21        -0.2711   -3.7722   10.5076 H         1 <0>         0.1070
     51 H22         1.0819   -4.1901    8.5008 H         1 <0>         0.1145
     52 H23        -4.3086   -3.0752   12.9512 H         1 <0>         0.1160
     53 H24        -3.0840   -2.8664   14.2260 H         1 <0>         0.1029
     54 H25        -3.5114   -1.4988   13.1700 H         1 <0>         0.1158
@<TRIPOS>BOND
     1    1    2 1
     2    1   30 1
     3    1   31 1
     4    1   32 1
     5    2    3 1
     6    3    8 ar
     7    3    4 ar
     8    4    5 ar
     9    4   33 1
    10    5    6 ar
    11    5   34 1
    12    6    7 ar
    13    6   35 1
    14    7    8 ar
    15    7   36 1
    16    8    9 1
    17    9   14 1
    18    9   10 1
    19   10   11 1
    20   10   37 1
    21   10   38 1
    22   11   12 1
    23   11   39 1
    24   11   40 1
    25   12   13 1
    26   12   41 1
    27   13   14 1
    28   13   15 1
    29   13   42 1
    30   14   43 1
    31   14   44 1
    32   15   16 1
    33   15   45 1
    34   15   46 1
    35   16   17 am
    36   16   47 1
    37   17   18 2
    38   17   19 1
    39   19   24 ar
    40   19   20 ar
    41   20   21 ar
    42   20   48 1
    43   21   22 ar
    44   21   49 1
    45   22   23 ar
    46   22   25 1
    47   23   24 ar
    48   23   50 1
    49   24   51 1
    50   25   26 1
    51   26   27 2
    52   26   28 2
    53   26   29 1
    54   29   52 1
    55   29   53 1
    56   29   54 1
@<TRIPOS>MOLECULE
CHEMBL349978
   55    57     0     0     0
SMALL
USER_CHARGES

@<TRIPOS>ATOM
      1 C1         -0.0173    1.4248    0.0099 C.3       1 <0>         0.0235
      2 O1          0.0021   -0.0041    0.0020 O.3       1 <0>        -0.3096
      3 C2          0.6263   -0.6189    1.0423 C.ar      1 <0>         0.1294
      4 C3          1.2020    0.1362    2.0507 C.ar      1 <0>        -0.2035
      5 C4          1.8368   -0.4902    3.1075 C.ar      1 <0>        -0.0686
      6 C5          1.8987   -1.8703    3.1618 C.ar      1 <0>        -0.1492
      7 C6          1.3263   -2.6311    2.1598 C.ar      1 <0>        -0.0810
      8 C7          0.6832   -2.0097    1.0992 C.ar      1 <0>         0.1117
      9 N1          0.0978   -2.7779    0.0862 N.pl3     1 <0>        -0.6630
     10 C8          0.8694   -3.1800   -1.1000 C.3       1 <0>         0.1207
     11 C9          0.7014   -4.6899   -1.2998 C.3       1 <0>        -0.0235
     12 N2         -0.7283   -5.0176   -1.3671 N.4       1 <0>        -0.5035
     13 C10        -1.3718   -4.7152   -0.0824 C.3       1 <0>         0.0035
     14 C11        -1.3049   -3.2113    0.1804 C.3       1 <0>         0.1308
     15 C12        -2.8343   -5.1624   -0.1265 C.3       1 <0>         0.1018
     16 N3         -2.9009   -6.5791   -0.4939 N.am      1 <0>        -0.7618
     17 C13        -4.0961   -7.1936   -0.5950 C.2       1 <0>         0.5822
     18 O2         -5.1192   -6.5721   -0.3814 O.2       1 <0>        -0.5427
     19 C14        -4.1631   -8.6201   -0.9650 C.ar      1 <0>        -0.2795
     20 C15        -2.9875   -9.3373   -1.2052 C.ar      1 <0>        -0.0435
     21 C16        -3.0533  -10.6680   -1.5496 C.ar      1 <0>        -0.1930
     22 C17        -4.2890  -11.2999   -1.6594 C.ar      1 <0>         0.3226
     23 C18        -5.4616  -10.5882   -1.4212 C.ar      1 <0>        -0.2685
     24 C19        -5.4021   -9.2589   -1.0703 C.ar      1 <0>         0.0078
     25 N4         -4.3522  -12.6444   -2.0080 N.2       1 <0>        -1.0844
     26 S1         -5.8211  -13.3977   -2.1390 S.o2      1 <0>         2.5322
     27 O3         -6.3663  -13.3598   -0.8273 O.2       1 <0>        -1.0210
     28 O4         -6.4734  -12.7359   -3.2141 O.2       1 <0>        -1.0216
     29 C20        -5.4287  -15.1068   -2.6034 C.3       1 <0>        -0.6368
     30 H1          1.0053    1.8021    0.0021 H         1 <0>         0.0576
     31 H2         -0.5445    1.7859   -0.8732 H         1 <0>         0.1030
     32 H3         -0.5275    1.7763    0.9067 H         1 <0>         0.0583
     33 H4          1.1555    1.2145    2.0114 H         1 <0>         0.1329
     34 H5          2.2858    0.1003    3.8925 H         1 <0>         0.1304
     35 H6          2.3959   -2.3551    3.9890 H         1 <0>         0.1301
     36 H7          1.3765   -3.7090    2.2044 H         1 <0>         0.1285
     37 H8          0.4959   -2.6508   -1.9766 H         1 <0>         0.0795
     38 H9          1.9230   -2.9457   -0.9483 H         1 <0>         0.1139
     39 H10         1.1872   -4.9899   -2.2283 H         1 <0>         0.1412
     40 H11         1.1568   -5.2201   -0.4634 H         1 <0>         0.1327
     41 H12        -1.1632   -4.4723   -2.0963 H         1 <0>         0.4284
     42 H13        -0.8536   -5.2446    0.7172 H         1 <0>         0.1466
     43 H14        -1.6880   -2.9976    1.1782 H         1 <0>         0.1172
     44 H15        -1.9016   -2.6852   -0.5647 H         1 <0>         0.0836
     45 H16        -3.2876   -5.0198    0.8544 H         1 <0>         0.1104
     46 H17        -3.3734   -4.5697   -0.8655 H         1 <0>         0.0926
     47 H18        -2.0847   -7.0748   -0.6643 H         1 <0>         0.3896
     48 H19        -2.0287   -8.8475   -1.1209 H         1 <0>         0.0960
     49 H20        -2.1454  -11.2227   -1.7354 H         1 <0>         0.1186
     50 H21        -6.4187  -11.0810   -1.5074 H         1 <0>         0.1113
     51 H22        -6.3119   -8.7085   -0.8810 H         1 <0>         0.1165
     52 H23        -4.8104  -15.5609   -1.8291 H         1 <0>         0.1180
     53 H24        -6.3525  -15.6754   -2.7106 H         1 <0>         0.1074
     54 H25        -4.8876  -15.1111   -3.5496 H         1 <0>         0.1178
     55 H26        -0.8378   -5.9991   -1.5739 H         1 <0>         0.4262
@<TRIPOS>BOND
     1    1    2 1
     2    1   30 1
     3    1   31 1
     4    1   32 1
     5    2    3 1
     6    3    8 ar
     7    3    4 ar
     8    4    5 ar
     9    4   33 1
    10    5    6 ar
    11    5   34 1
    12    6    7 ar
    13    6   35 1
    14    7    8 ar
    15    7   36 1
    16    8    9 1
    17    9   14 1
    18    9   10 1
    19   10   11 1
    20   10   37 1
    21   10   38 1
    22   11   12 1
    23   11   39 1
    24   11   40 1
    25   12   13 1
    26   12   41 1
    27   12   55 1
    28   13   14 1
    29   13   15 1
    30   13   42 1
    31   14   43 1
    32   14   44 1
    33   15   16 1
    34   15   45 1
    35   15   46 1
    36   16   17 am
    37   16   47 1
    38   17   18 2
    39   17   19 1
    40   19   24 ar
    41   19   20 ar
    42   20   21 ar
    43   20   48 1
    44   21   22 ar
    45   21   49 1
    46   22   23 ar
    47   22   25 1
    48   23   24 ar
    49   23   50 1
    50   24   51 1
    51   25   26 1
    52   26   27 2
    53   26   28 2
    54   26   29 1
    55   29   52 1
    56   29   53 1
    57   29   54 1
@<TRIPOS>MOLECULE
CHEMBL349978
   54    56     0     0     0
SMALL
USER_CHARGES

@<TRIPOS>ATOM
      1 C1         -0.0173    1.4248    0.0099 C.3       1 <0>         0.0258
      2 O1          0.0021   -0.0041    0.0020 O.3       1 <0>        -0.3045
      3 C2          0.6063   -0.6076   -1.0566 C.ar      1 <0>         0.1187
      4 C3          1.1727    0.1584   -2.0619 C.ar      1 <0>        -0.2078
      5 C4          1.7862   -0.4565   -3.1379 C.ar      1 <0>        -0.0852
      6 C5          1.8369   -1.8361   -3.2138 C.ar      1 <0>        -0.1516
      7 C6          1.2745   -2.6077   -2.2144 C.ar      1 <0>        -0.0861
      8 C7          0.6620   -1.9977   -1.1294 C.ar      1 <0>         0.1423
      9 N1          0.0968   -2.7768   -0.1132 N.pl3     1 <0>        -0.6668
     10 C8         -1.3056   -3.2137   -0.1884 C.3       1 <0>         0.1098
     11 C9         -1.3570   -4.7276    0.0431 C.3       1 <0>         0.0441
     12 N2         -0.6724   -5.0507    1.3020 N.3       1 <0>        -0.6759
     13 C10         0.7517   -4.6956    1.2405 C.3       1 <0>         0.0619
     14 C11         0.8913   -3.1855    1.0551 C.3       1 <0>         0.1201
     15 C12         1.4398   -5.1181    2.5401 C.3       1 <0>         0.1334
     16 N3          1.2034   -6.5444    2.7765 N.am      1 <0>        -0.7257
     17 C13         1.7181   -7.1405    3.8703 C.2       1 <0>         0.5728
     18 O2          2.3786   -6.4945    4.6608 O.2       1 <0>        -0.5702
     19 C14         1.4800   -8.5768    4.1084 C.ar      1 <0>        -0.2597
     20 C15         0.7257   -9.3222    3.1975 C.ar      1 <0>        -0.0388
     21 C16         0.5058  -10.6619    3.4222 C.ar      1 <0>        -0.1963
     22 C17         1.0332  -11.2750    4.5554 C.ar      1 <0>         0.3128
     23 C18         1.7845  -10.5353    5.4646 C.ar      1 <0>        -0.2722
     24 C19         2.0131   -9.1966    5.2423 C.ar      1 <0>        -0.0004
     25 N4          0.8088  -12.6287    4.7798 N.2       1 <0>        -1.0910
     26 S1          1.4354  -13.3596    6.1271 S.o2      1 <0>         2.5275
     27 O3          2.8444  -13.2698    5.9663 O.2       1 <0>        -1.0261
     28 O4          0.7889  -12.7213    7.2197 O.2       1 <0>        -1.0260
     29 C20         0.9022  -15.0895    6.0096 C.3       1 <0>        -0.6376
     30 H1          1.0053    1.8021    0.0021 H         1 <0>         0.0534
     31 H2         -0.5445    1.7859   -0.8732 H         1 <0>         0.0527
     32 H3         -0.5275    1.7763    0.9067 H         1 <0>         0.0983
     33 H4          1.1348    1.2363   -2.0057 H         1 <0>         0.1263
     34 H5          2.2267    0.1425   -3.9212 H         1 <0>         0.1234
     35 H6          2.3168   -2.3119   -4.0562 H         1 <0>         0.1243
     36 H7          1.3151   -3.6852   -2.2764 H         1 <0>         0.1288
     37 H8         -1.8890   -2.7058    0.5796 H         1 <0>         0.0493
     38 H9         -1.7097   -2.9800   -1.1734 H         1 <0>         0.0694
     39 H10        -2.3961   -5.0517    0.1006 H         1 <0>         0.0826
     40 H11        -0.8612   -5.2388   -0.7821 H         1 <0>         0.0748
     41 H12        -1.1236   -4.6014    2.0847 H         1 <0>         0.3437
     42 H13         1.2181   -5.2073    0.3986 H         1 <0>         0.0887
     43 H14         1.9390   -2.9332    0.8918 H         1 <0>         0.0735
     44 H15         0.5231   -2.6749    1.9450 H         1 <0>         0.0535
     45 H16         2.5115   -4.9359    2.4596 H         1 <0>         0.0673
     46 H17         1.0343   -4.5400    3.3704 H         1 <0>         0.0615
     47 H18         0.6765   -7.0598    2.1459 H         1 <0>         0.4054
     48 H19         0.3156   -8.8470    2.3186 H         1 <0>         0.1076
     49 H20        -0.0769  -11.2383    2.7188 H         1 <0>         0.1154
     50 H21         2.1920  -11.0136    6.3429 H         1 <0>         0.1060
     51 H22         2.6000   -8.6244    5.9456 H         1 <0>         0.1132
     52 H23         1.2949  -15.5293    5.0929 H         1 <0>         0.1157
     53 H24         1.2781  -15.6448    6.8690 H         1 <0>         0.1024
     54 H25        -0.1868  -15.1339    5.9964 H         1 <0>         0.1158
@<TRIPOS>BOND
     1    1    2 1
     2    1   30 1
     3    1   31 1
     4    1   32 1
     5    2    3 1
     6    3    8 ar
     7    3    4 ar
     8    4    5 ar
     9    4   33 1
    10    5    6 ar
    11    5   34 1
    12    6    7 ar
    13    6   35 1
    14    7    8 ar
    15    7   36 1
    16    8    9 1
    17    9   14 1
    18    9   10 1
    19   10   11 1
    20   10   37 1
    21   10   38 1
    22   11   12 1
    23   11   39 1
    24   11   40 1
    25   12   13 1
    26   12   41 1
    27   13   14 1
    28   13   15 1
    29   13   42 1
    30   14   43 1
    31   14   44 1
    32   15   16 1
    33   15   45 1
    34   15   46 1
    35   16   17 am
    36   16   47 1
    37   17   18 2
    38   17   19 1
    39   19   24 ar
    40   19   20 ar
    41   20   21 ar
    42   20   48 1
    43   21   22 ar
    44   21   49 1
    45   22   23 ar
    46   22   25 1
    47   23   24 ar
    48   23   50 1
    49   24   51 1
    50   25   26 1
    51   26   27 2
    52   26   28 2
    53   26   29 1
    54   29   52 1
    55   29   53 1
    56   29   54 1
@<TRIPOS>MOLECULE
CHEMBL324665
   45    47     0     0     0
SMALL
USER_CHARGES

@<TRIPOS>ATOM
      1 C1         -0.0187    1.5258    0.0104 C.3       1 <0>        -0.1852
      2 C2          0.0021   -0.0041    0.0020 C.3       1 <0>         0.0240
      3 C3          0.7421   -0.5109    1.2415 C.3       1 <0>        -0.1868
      4 N1         -1.3761   -0.5125    0.0124 N.4       1 <0>        -0.5024
      5 C4         -1.3591   -1.9758   -0.1163 C.3       1 <0>        -0.0453
      6 C5         -2.7945   -2.5054   -0.1054 C.3       1 <0>         0.0864
      7 C6         -2.7738   -4.0352   -0.1138 C.3       1 <0>         0.0284
      8 O1         -4.1082   -4.5304    0.0137 O.3       1 <0>        -0.2956
      9 C7         -4.2670   -5.8796    0.0235 C.ar      1 <0>         0.1788
     10 C8         -3.1650   -6.7102   -0.0813 C.ar      1 <0>        -0.2457
     11 C9         -3.3264   -8.0859   -0.0714 C.ar      1 <0>        -0.0444
     12 C10        -4.5817   -8.6448    0.0420 C.ar      1 <0>        -0.1709
     13 C11        -5.7038   -7.8280    0.1481 C.ar      1 <0>         0.1820
     14 C12        -5.5431   -6.4351    0.1450 C.ar      1 <0>        -0.1299
     15 C13        -6.8926   -5.8573    0.2780 C.ar      1 <0>        -0.0925
     16 C14        -7.3759   -4.5518    0.3302 C.ar      1 <0>        -0.0606
     17 C15        -8.7293   -4.3274    0.4621 C.ar      1 <0>        -0.1467
     18 C16        -9.6097   -5.3954    0.5433 C.ar      1 <0>        -0.0825
     19 C17        -9.1450   -6.6920    0.4935 C.ar      1 <0>        -0.1380
     20 C18        -7.7821   -6.9389    0.3597 C.ar      1 <0>         0.1337
     21 N2         -7.0524   -8.1113    0.2698 N.pl3     1 <0>        -0.6120
     22 H1         -7.4310   -9.0039    0.3007 H         1 <0>         0.4227
     23 O2         -3.4857   -2.0320   -1.2631 O.3       1 <0>        -0.5425
     24 H2          1.0039    1.9031    0.0027 H         1 <0>         0.1080
     25 H3         -0.5459    1.8868   -0.8726 H         1 <0>         0.0830
     26 H4         -0.5289    1.8773    0.9072 H         1 <0>         0.0828
     27 H5          0.5123   -0.3556   -0.8948 H         1 <0>         0.1393
     28 H6          0.7568   -1.6008    1.2356 H         1 <0>         0.0804
     29 H7          1.7647   -0.1336    1.2338 H         1 <0>         0.1078
     30 H8          0.2319   -0.1594    2.1383 H         1 <0>         0.0834
     31 H9         -1.8225   -0.2564    0.8803 H         1 <0>         0.4283
     32 H10        -0.8769   -2.2525   -1.0538 H         1 <0>         0.1401
     33 H11        -0.8062   -2.4075    0.7180 H         1 <0>         0.1468
     34 H12        -3.3047   -2.1538    0.7914 H         1 <0>         0.1343
     35 H13        -2.3435   -4.3876   -1.0513 H         1 <0>         0.0784
     36 H14        -2.1714   -4.3950    0.7203 H         1 <0>         0.0825
     37 H15        -2.1765   -6.2847   -0.1714 H         1 <0>         0.1277
     38 H16        -2.4610   -8.7267   -0.1536 H         1 <0>         0.1353
     39 H17        -4.6947   -9.7188    0.0482 H         1 <0>         0.1306
     40 H18        -6.6921   -3.7182    0.2678 H         1 <0>         0.1252
     41 H19        -9.1054   -3.3159    0.5026 H         1 <0>         0.1276
     42 H20       -10.6685   -5.2097    0.6469 H         1 <0>         0.1321
     43 H21        -9.8391   -7.5169    0.5580 H         1 <0>         0.1272
     44 H22        -3.0863   -2.3073   -2.0996 H         1 <0>         0.3904
     45 H23        -1.8879   -0.1129   -0.7598 H         1 <0>         0.4337
@<TRIPOS>BOND
     1    1    2 1
     2    1   24 1
     3    1   25 1
     4    1   26 1
     5    2    3 1
     6    2    4 1
     7    2   27 1
     8    3   28 1
     9    3   29 1
    10    3   30 1
    11    4    5 1
    12    4   31 1
    13    4   45 1
    14    5    6 1
    15    5   32 1
    16    5   33 1
    17    6    7 1
    18    6   23 1
    19    6   34 1
    20    7    8 1
    21    7   35 1
    22    7   36 1
    23    8    9 1
    24    9   14 ar
    25    9   10 ar
    26   10   11 ar
    27   10   37 1
    28   11   12 ar
    29   11   38 1
    30   12   13 ar
    31   12   39 1
    32   13   21 1
    33   13   14 ar
    34   14   15 1
    35   15   20 ar
    36   15   16 ar
    37   16   17 ar
    38   16   40 1
    39   17   18 ar
    40   17   41 1
    41   18   19 ar
    42   18   42 1
    43   19   20 ar
    44   19   43 1
    45   20   21 1
    46   21   22 1
    47   23   44 1
@<TRIPOS>MOLECULE
CHEMBL324665
   45    47     0     0     0
SMALL
USER_CHARGES

@<TRIPOS>ATOM
      1 C1         -0.0187    1.5258    0.0104 C.3       1 <0>        -0.1852
      2 C2          0.0021   -0.0041    0.0020 C.3       1 <0>         0.0238
      3 C3          0.7421   -0.5109    1.2415 C.3       1 <0>        -0.1864
      4 N1         -1.3761   -0.5125    0.0124 N.4       1 <0>        -0.5019
      5 C4         -1.3591   -1.9758   -0.1163 C.3       1 <0>        -0.0457
      6 C5         -2.7945   -2.5054   -0.1054 C.3       1 <0>         0.0861
      7 C6         -2.7769   -4.0294   -0.2395 C.3       1 <0>         0.0285
      8 O1         -4.1170   -4.5137   -0.3464 O.3       1 <0>        -0.2956
      9 C7         -4.2793   -5.8565   -0.4731 C.ar      1 <0>         0.1788
     10 C8         -3.1758   -6.6918   -0.4885 C.ar      1 <0>        -0.2457
     11 C9         -3.3407   -8.0610   -0.6177 C.ar      1 <0>        -0.0444
     12 C10        -4.6008   -8.6088   -0.7326 C.ar      1 <0>        -0.1709
     13 C11        -5.7243   -7.7872   -0.7199 C.ar      1 <0>         0.1820
     14 C12        -5.5610   -6.4014   -0.5826 C.ar      1 <0>        -0.1299
     15 C13        -6.9141   -5.8168   -0.5960 C.ar      1 <0>        -0.0926
     16 C14        -7.3963   -4.5131   -0.5039 C.ar      1 <0>        -0.0606
     17 C15        -8.7540   -4.2805   -0.5487 C.ar      1 <0>        -0.1467
     18 C16        -9.6398   -5.3384   -0.6844 C.ar      1 <0>        -0.0825
     19 C17        -9.1763   -6.6331   -0.7762 C.ar      1 <0>        -0.1380
     20 C18        -7.8090   -6.8882   -0.7339 C.ar      1 <0>         0.1337
     21 N2         -7.0771   -8.0597   -0.8167 N.pl3     1 <0>        -0.6120
     22 H1         -7.4586   -8.9461   -0.9156 H         1 <0>         0.4227
     23 O2         -3.4268   -2.1426    1.1237 O.3       1 <0>        -0.5429
     24 H2          1.0039    1.9031    0.0027 H         1 <0>         0.1081
     25 H3         -0.5459    1.8868   -0.8726 H         1 <0>         0.0830
     26 H4         -0.5289    1.8773    0.9072 H         1 <0>         0.0828
     27 H5          0.5123   -0.3556   -0.8948 H         1 <0>         0.1398
     28 H6          0.7568   -1.6008    1.2356 H         1 <0>         0.0798
     29 H7          1.7647   -0.1336    1.2338 H         1 <0>         0.1078
     30 H8          0.2319   -0.1594    2.1383 H         1 <0>         0.0833
     31 H9         -1.8225   -0.2564    0.8803 H         1 <0>         0.4313
     32 H10        -0.8769   -2.2525   -1.0538 H         1 <0>         0.1467
     33 H11        -0.8062   -2.4075    0.7180 H         1 <0>         0.1404
     34 H12        -3.3474   -2.0736   -0.9397 H         1 <0>         0.1354
     35 H13        -2.2171   -4.3091   -1.1320 H         1 <0>         0.0829
     36 H14        -2.3018   -4.4659    0.6390 H         1 <0>         0.0779
     37 H15        -2.1835   -6.2749   -0.4000 H         1 <0>         0.1277
     38 H16        -2.4742   -8.7055   -0.6288 H         1 <0>         0.1352
     39 H17        -4.7163   -9.6779   -0.8331 H         1 <0>         0.1306
     40 H18        -6.7085   -3.6873   -0.3974 H         1 <0>         0.1252
     41 H19        -9.1294   -3.2703   -0.4774 H         1 <0>         0.1276
     42 H20       -10.7021   -5.1464   -0.7182 H         1 <0>         0.1321
     43 H21        -9.8747   -7.4502   -0.8813 H         1 <0>         0.1272
     44 H22        -2.9873   -2.4932    1.9105 H         1 <0>         0.3897
     45 H23        -1.8879   -0.1129   -0.7598 H         1 <0>         0.4307
@<TRIPOS>BOND
     1    1    2 1
     2    1   24 1
     3    1   25 1
     4    1   26 1
     5    2    3 1
     6    2    4 1
     7    2   27 1
     8    3   28 1
     9    3   29 1
    10    3   30 1
    11    4    5 1
    12    4   31 1
    13    4   45 1
    14    5    6 1
    15    5   32 1
    16    5   33 1
    17    6    7 1
    18    6   23 1
    19    6   34 1
    20    7    8 1
    21    7   35 1
    22    7   36 1
    23    8    9 1
    24    9   14 ar
    25    9   10 ar
    26   10   11 ar
    27   10   37 1
    28   11   12 ar
    29   11   38 1
    30   12   13 ar
    31   12   39 1
    32   13   21 1
    33   13   14 ar
    34   14   15 1
    35   15   20 ar
    36   15   16 ar
    37   16   17 ar
    38   16   40 1
    39   17   18 ar
    40   17   41 1
    41   18   19 ar
    42   18   42 1
    43   19   20 ar
    44   19   43 1
    45   20   21 1
    46   21   22 1
    47   23   44 1
@<TRIPOS>MOLECULE
CHEMBL236251
   67    70     0     0     0
SMALL
USER_CHARGES

@<TRIPOS>ATOM
      1 C1         -0.0187    1.5258    0.0104 C.3       1 <0>        -0.1840
      2 C2          0.0021   -0.0041    0.0020 C.3       1 <0>         0.0288
      3 H1          0.5123   -0.3556   -0.8948 H         1 <0>         0.1405
      4 C3         -1.4333   -0.5336    0.0129 C.3       1 <0>        -0.0941
      5 C4         -1.4159   -2.0348   -0.1192 C.ar      1 <0>        -0.1476
      6 C5         -1.4502   -2.6151   -1.3811 C.ar      1 <0>        -0.0846
      7 C6         -1.4355   -3.9842   -1.5247 C.ar      1 <0>        -0.1100
      8 C7         -1.3855   -4.7979   -0.3960 C.ar      1 <0>         0.1193
      9 C8         -1.3504   -4.2071    0.8821 C.ar      1 <0>        -0.1106
     10 C9         -1.3611   -2.8112    1.0014 C.ar      1 <0>        -0.0782
     11 C10        -1.3033   -5.2632    1.8240 C.2       1 <0>        -0.1110
     12 C11        -1.3101   -6.4336    1.1340 C.2       1 <0>         0.0338
     13 N1         -1.3601   -6.1611   -0.2194 N.pl3     1 <0>        -0.5732
     14 H2         -1.3753   -6.8228   -0.9285 H         1 <0>         0.4225
     15 C12        -1.2699   -7.7763    1.7324 C.2       1 <0>         0.5771
     16 O1         -1.2263   -7.9023    2.9415 O.2       1 <0>        -0.5110
     17 N2         -1.2814   -8.8673    0.9411 N.am      1 <0>        -0.7230
     18 C13        -1.2413  -10.2049    1.5372 C.3       1 <0>         0.1270
     19 C14        -1.2643  -11.2585    0.4280 C.3       1 <0>        -0.1284
     20 C15        -2.6824  -11.6587   -0.0122 C.3       1 <0>        -0.1383
     21 C16        -2.1644  -13.1044   -0.0931 C.3       1 <0>        -0.1436
     22 C17        -1.1027  -12.6986    0.9427 C.3       1 <0>        -0.1305
     23 N3          0.7126   -0.4907    1.1921 N.4       1 <0>        -0.5054
     24 C18         2.1220   -0.0825    1.1220 C.3       1 <0>        -0.0460
     25 C19         2.8620   -0.5894    2.3615 C.3       1 <0>         0.1377
     26 H3          2.8002   -1.6769    2.4022 H         1 <0>         0.1316
     27 C20         4.3078   -0.1706    2.2896 C.ar      1 <0>        -0.1525
     28 C21         4.6878    1.0793    2.7430 C.ar      1 <0>        -0.0895
     29 C22         6.0123    1.4657    2.6777 C.ar      1 <0>        -0.1374
     30 C23         6.9620    0.5982    2.1572 C.ar      1 <0>         0.1325
     31 C24         6.5783   -0.6552    1.7036 C.ar      1 <0>        -0.1103
     32 C25         5.2530   -1.0389    1.7758 C.ar      1 <0>        -0.0623
     33 C26         7.6071   -1.5999    1.1376 C.3       1 <0>         0.1177
     34 O2          6.9703   -2.8165    0.7422 O.3       1 <0>        -0.5751
     35 O3          8.2657    0.9761    2.0915 O.3       1 <0>        -0.4945
     36 O4          2.2630   -0.0341    3.5341 O.3       1 <0>        -0.5463
     37 H4          1.0039    1.9031    0.0027 H         1 <0>         0.0814
     38 H5         -0.5459    1.8868   -0.8726 H         1 <0>         0.1081
     39 H6         -0.5289    1.8773    0.9072 H         1 <0>         0.0839
     40 H7         -1.9156   -0.2570    0.9504 H         1 <0>         0.0976
     41 H8         -1.9862   -0.1019   -0.8214 H         1 <0>         0.1213
     42 H9         -1.4890   -1.9859   -2.2581 H         1 <0>         0.1347
     43 H10        -1.4631   -4.4258   -2.5099 H         1 <0>         0.1320
     44 H11        -1.3300   -2.3510    1.9779 H         1 <0>         0.1258
     45 H12        -1.2683   -5.1574    2.8983 H         1 <0>         0.1618
     46 H13        -1.3162   -8.7668   -0.0230 H         1 <0>         0.3960
     47 H14        -0.3288  -10.3143    2.1233 H         1 <0>         0.0759
     48 H15        -2.1075  -10.3402    2.1848 H         1 <0>         0.0768
     49 H16        -0.6008  -11.0143   -0.4016 H         1 <0>         0.0958
     50 H17        -3.4378  -11.5080    0.7590 H         1 <0>         0.0844
     51 H18        -2.9731  -11.2444   -0.9776 H         1 <0>         0.0669
     52 H19        -2.8747  -13.8439    0.2765 H         1 <0>         0.0725
     53 H20        -1.7480  -13.3652   -1.0660 H         1 <0>         0.0823
     54 H21        -0.1180  -13.1238    0.7483 H         1 <0>         0.0729
     55 H22        -1.4262  -12.8322    1.9750 H         1 <0>         0.0869
     56 H23         0.2896   -0.0986    2.0201 H         1 <0>         0.4279
     57 H24         2.5788   -0.5061    0.2276 H         1 <0>         0.1439
     58 H25         2.1837    1.0050    1.0814 H         1 <0>         0.1390
     59 H26         3.9483    1.7541    3.1480 H         1 <0>         0.1279
     60 H27         6.3085    2.4422    3.0312 H         1 <0>         0.1400
     61 H28         4.9544   -2.0163    1.4265 H         1 <0>         0.1415
     62 H29         8.0839   -1.1412    0.2713 H         1 <0>         0.0701
     63 H30         8.3602   -1.8138    1.8960 H         1 <0>         0.0649
     64 H31         7.5738   -3.4728    0.3679 H         1 <0>         0.3924
     65 H32         8.7804    0.7520    2.8789 H         1 <0>         0.4006
     66 H33         2.2821    0.9322    3.5656 H         1 <0>         0.3868
     67 H34         0.6554   -1.4974    1.2298 H         1 <0>         0.4271
@<TRIPOS>BOND
     1    1    2 1
     2    1   37 1
     3    1   38 1
     4    1   39 1
     5    2    3 1
     6    2    4 1
     7    2   23 1
     8    4    5 1
     9    4   40 1
    10    4   41 1
    11    5   10 ar
    12    5    6 ar
    13    6    7 ar
    14    6   42 1
    15    7    8 ar
    16    7   43 1
    17    8   13 1
    18    8    9 ar
    19    9   10 ar
    20    9   11 1
    21   10   44 1
    22   11   12 2
    23   11   45 1
    24   12   13 1
    25   12   15 1
    26   13   14 1
    27   15   16 2
    28   15   17 am
    29   17   18 1
    30   17   46 1
    31   18   19 1
    32   18   47 1
    33   18   48 1
    34   19   22 1
    35   19   20 1
    36   19   49 1
    37   20   21 1
    38   20   50 1
    39   20   51 1
    40   21   22 1
    41   21   52 1
    42   21   53 1
    43   22   54 1
    44   22   55 1
    45   23   24 1
    46   23   56 1
    47   23   67 1
    48   24   25 1
    49   24   57 1
    50   24   58 1
    51   25   26 1
    52   25   27 1
    53   25   36 1
    54   27   32 ar
    55   27   28 ar
    56   28   29 ar
    57   28   59 1
    58   29   30 ar
    59   29   60 1
    60   30   31 ar
    61   30   35 1
    62   31   32 ar
    63   31   33 1
    64   32   61 1
    65   33   34 1
    66   33   62 1
    67   33   63 1
    68   34   64 1
    69   35   65 1
    70   36   66 1
@<TRIPOS>MOLECULE
CHEMBL64201
   58    60     0     0     0
SMALL
USER_CHARGES

@<TRIPOS>ATOM
      1 C1         -0.0012    1.3213   -0.1125 C.ar      1 <0>        -0.0883
      2 C2          1.1722    2.0495   -0.0959 C.ar      1 <0>        -0.1247
      3 C3          2.3947    1.3925   -0.0376 C.ar      1 <0>         0.1633
      4 C4          2.4325    0.0046    0.0039 C.ar      1 <0>        -0.1495
      5 C5          1.2553   -0.7175   -0.0129 C.ar      1 <0>        -0.0828
      6 C6          0.0400   -0.0603   -0.0711 C.ar      1 <0>        -0.1182
      7 C7         -1.2424   -0.8515   -0.0888 C.3       1 <0>        -0.1004
      8 C8         -1.6307   -1.1611   -1.5360 C.3       1 <0>        -0.0078
      9 N1         -2.8808   -1.9324   -1.5533 N.4       1 <0>        -0.5040
     10 C9         -3.2536   -2.2296   -2.9428 C.3       1 <0>        -0.0423
     11 C10        -4.5556   -3.0330   -2.9608 C.3       1 <0>         0.0865
     12 H1         -5.3476   -2.4518   -2.4885 H         1 <0>         0.1357
     13 C11        -4.9438   -3.3426   -4.4080 C.3       1 <0>         0.0280
     14 O1         -6.2173   -3.9905   -4.4313 O.3       1 <0>        -0.2993
     15 C12        -6.7119   -4.3363   -5.6503 C.ar      1 <0>         0.0020
     16 C13        -7.9496   -4.9659   -5.7555 C.ar      1 <0>        -0.0501
     17 C14        -8.4143   -5.2999   -7.0145 C.ar      1 <0>        -0.1972
     18 C15        -7.6352   -4.9979   -8.1264 C.ar      1 <0>         0.3854
     19 N2         -6.4634   -4.3987   -7.9879 N.ar      1 <0>        -0.5155
     20 C16        -5.9934   -4.0613   -6.8015 C.ar      1 <0>         0.0732
     21 N3         -8.0928   -5.3300   -9.3990 N.pl3     1 <0>        -0.8492
     22 O2         -4.3707   -4.2560   -2.2452 O.3       1 <0>        -0.5438
     23 N4          3.5833    2.1259   -0.0212 N.pl3     1 <0>        -1.0589
     24 S1          4.7753    1.7467    1.0640 S.o2      1 <0>         2.6885
     25 O3          5.0247    0.3548    0.9235 O.2       1 <0>        -0.9410
     26 O4          5.7952    2.7233    0.9048 O.2       1 <0>        -0.9357
     27 C17         4.1042    1.9777    2.6768 C.ar      1 <0>        -0.6649
     28 C18         4.1112    3.2334    3.2548 C.ar      1 <0>        -0.0110
     29 C19         3.5848    3.4150    4.5200 C.ar      1 <0>        -0.1042
     30 C20         3.0512    2.3402    5.2075 C.ar      1 <0>        -0.0468
     31 C21         3.0444    1.0841    4.6290 C.ar      1 <0>        -0.1057
     32 C22         3.5658    0.9043    3.3615 C.ar      1 <0>        -0.0129
     33 I1          2.2539    2.6148    7.1253 I         1 <0>        -0.0147
     34 H2         -0.9522    1.8316   -0.1533 H         1 <0>         0.1307
     35 H3          1.1393    3.1285   -0.1287 H         1 <0>         0.1361
     36 H4          3.3813   -0.5093    0.0489 H         1 <0>         0.1626
     37 H5          1.2840   -1.7966    0.0193 H         1 <0>         0.1337
     38 H6         -1.1014   -1.7844    0.4570 H         1 <0>         0.0984
     39 H7         -2.0345   -0.2704    0.3835 H         1 <0>         0.0976
     40 H8         -1.7717   -0.2282   -2.0819 H         1 <0>         0.1349
     41 H9         -0.8387   -1.7422   -2.0083 H         1 <0>         0.1352
     42 H10        -2.7502   -2.7960   -1.0480 H         1 <0>         0.4337
     43 H11        -3.3946   -1.2968   -3.4886 H         1 <0>         0.1474
     44 H12        -2.4615   -2.8108   -3.4151 H         1 <0>         0.1406
     45 H13        -4.9982   -2.4140   -4.9762 H         1 <0>         0.0807
     46 H14        -4.1948   -3.9975   -4.8530 H         1 <0>         0.0758
     47 H15        -8.5330   -5.1886   -4.8743 H         1 <0>         0.1449
     48 H16        -9.3697   -5.7894   -7.1328 H         1 <0>         0.1438
     49 H17        -5.0349   -3.5692   -6.7275 H         1 <0>         0.1523
     50 H18        -8.9508   -5.7696   -9.5064 H         1 <0>         0.4118
     51 H19        -7.5536   -5.1217  -10.1780 H         1 <0>         0.4069
     52 H20        -3.6793   -4.8248   -2.6107 H         1 <0>         0.3903
     53 H21         3.7106    2.8573   -0.6455 H         1 <0>         0.4327
     54 H22         4.5282    4.0726    2.7180 H         1 <0>         0.1499
     55 H23         3.5906    4.3959    4.9716 H         1 <0>         0.1442
     56 H24         2.6277    0.2446    5.1656 H         1 <0>         0.1420
     57 H25         3.5561   -0.0757    2.9077 H         1 <0>         0.1491
     58 H26        -3.6140   -1.3945   -1.1161 H         1 <0>         0.4309
@<TRIPOS>BOND
     1    1    6 ar
     2    1    2 ar
     3    1   34 1
     4    2    3 ar
     5    2   35 1
     6    3    4 ar
     7    3   23 1
     8    4    5 ar
     9    4   36 1
    10    5    6 ar
    11    5   37 1
    12    6    7 1
    13    7    8 1
    14    7   38 1
    15    7   39 1
    16    8    9 1
    17    8   40 1
    18    8   41 1
    19    9   10 1
    20    9   42 1
    21    9   58 1
    22   10   11 1
    23   10   43 1
    24   10   44 1
    25   11   12 1
    26   11   13 1
    27   11   22 1
    28   13   14 1
    29   13   45 1
    30   13   46 1
    31   14   15 1
    32   15   20 ar
    33   15   16 ar
    34   16   17 ar
    35   16   47 1
    36   17   18 ar
    37   17   48 1
    38   18   19 ar
    39   18   21 1
    40   19   20 ar
    41   20   49 1
    42   21   50 1
    43   21   51 1
    44   22   52 1
    45   23   24 1
    46   23   53 1
    47   24   25 2
    48   24   26 2
    49   24   27 1
    50   27   32 ar
    51   27   28 ar
    52   28   29 ar
    53   28   54 1
    54   29   30 ar
    55   29   55 1
    56   30   31 ar
    57   30   33 1
    58   31   32 ar
    59   31   56 1
    60   32   57 1
@<TRIPOS>MOLECULE
CHEMBL64201
   59    61     0     0     0
SMALL
USER_CHARGES

@<TRIPOS>ATOM
      1 C1         -0.0012    1.3213   -0.1125 C.ar      1 <0>        -0.0879
      2 C2          1.1722    2.0495   -0.0959 C.ar      1 <0>        -0.1251
      3 C3          2.3947    1.3925   -0.0376 C.ar      1 <0>         0.1678
      4 C4          2.4325    0.0046    0.0039 C.ar      1 <0>        -0.1497
      5 C5          1.2553   -0.7175   -0.0129 C.ar      1 <0>        -0.0824
      6 C6          0.0400   -0.0603   -0.0711 C.ar      1 <0>        -0.1232
      7 C7         -1.2424   -0.8515   -0.0888 C.3       1 <0>        -0.0993
      8 C8         -1.6307   -1.1611   -1.5360 C.3       1 <0>        -0.0080
      9 N1         -2.8808   -1.9324   -1.5533 N.4       1 <0>        -0.5046
     10 C9         -3.2536   -2.2296   -2.9428 C.3       1 <0>        -0.0422
     11 C10        -4.5556   -3.0330   -2.9608 C.3       1 <0>         0.0855
     12 H1         -5.3476   -2.4518   -2.4885 H         1 <0>         0.1408
     13 C11        -4.9438   -3.3426   -4.4080 C.3       1 <0>         0.0222
     14 O1         -6.2173   -3.9905   -4.4313 O.3       1 <0>        -0.2788
     15 C12        -6.7119   -4.3363   -5.6503 C.ar      1 <0>         0.0769
     16 C13        -5.9866   -4.0648   -6.8077 C.ar      1 <0>        -0.0491
     17 C14        -6.5273   -4.4336   -8.0260 C.ar      1 <0>        -0.1491
     18 C15        -7.7693   -5.0592   -8.0546 C.ar      1 <0>         0.4350
     19 N2         -8.4300   -5.3012   -6.9339 N.ar      1 <0>        -0.4742
     20 C16        -7.9400   -4.9674   -5.7545 C.ar      1 <0>         0.1156
     21 N3         -8.3235   -5.4346   -9.2757 N.pl3     1 <0>        -0.8134
     22 O2         -4.3707   -4.2560   -2.2452 O.3       1 <0>        -0.5408
     23 N4          3.5833    2.1259   -0.0212 N.pl3     1 <0>        -1.0597
     24 S1          4.7753    1.7467    1.0640 S.o2      1 <0>         2.6879
     25 O3          5.0247    0.3548    0.9235 O.2       1 <0>        -0.9410
     26 O4          5.7952    2.7233    0.9048 O.2       1 <0>        -0.9332
     27 C17         4.1042    1.9777    2.6768 C.ar      1 <0>        -0.6657
     28 C18         4.1112    3.2334    3.2548 C.ar      1 <0>        -0.0106
     29 C19         3.5848    3.4150    4.5200 C.ar      1 <0>        -0.1035
     30 C20         3.0512    2.3402    5.2075 C.ar      1 <0>        -0.0466
     31 C21         3.0444    1.0841    4.6290 C.ar      1 <0>        -0.1058
     32 C22         3.5658    0.9043    3.3615 C.ar      1 <0>        -0.0139
     33 I1          2.2539    2.6148    7.1253 I         1 <0>        -0.0126
     34 H2         -0.9522    1.8316   -0.1533 H         1 <0>         0.1301
     35 H3          1.1393    3.1285   -0.1287 H         1 <0>         0.1370
     36 H4          3.3813   -0.5093    0.0489 H         1 <0>         0.1634
     37 H5          1.2840   -1.7966    0.0193 H         1 <0>         0.1330
     38 H6         -1.1014   -1.7844    0.4570 H         1 <0>         0.0988
     39 H7         -2.0345   -0.2704    0.3835 H         1 <0>         0.0979
     40 H8         -1.7717   -0.2282   -2.0819 H         1 <0>         0.1359
     41 H9         -0.8387   -1.7422   -2.0083 H         1 <0>         0.1362
     42 H10        -2.7502   -2.7960   -1.0480 H         1 <0>         0.4352
     43 H11        -3.3946   -1.2968   -3.4886 H         1 <0>         0.1489
     44 H12        -2.4615   -2.8108   -3.4151 H         1 <0>         0.1421
     45 H13        -4.9982   -2.4140   -4.9762 H         1 <0>         0.0944
     46 H14        -4.1948   -3.9975   -4.8530 H         1 <0>         0.0891
     47 H15        -5.0244   -3.5773   -6.7552 H         1 <0>         0.1750
     48 H16        -5.9922   -4.2381   -8.9435 H         1 <0>         0.1886
     49 H17        -8.5057   -5.1850   -4.8606 H         1 <0>         0.2155
     50 H18        -7.8438   -5.2594  -10.1004 H         1 <0>         0.4435
     51 H19        -9.1893   -5.8712   -9.3016 H         1 <0>         0.4261
     52 H20        -3.6793   -4.8248   -2.6107 H         1 <0>         0.3934
     53 H21         3.7106    2.8573   -0.6455 H         1 <0>         0.4333
     54 H22         4.5282    4.0726    2.7180 H         1 <0>         0.1503
     55 H23         3.5906    4.3959    4.9716 H         1 <0>         0.1449
     56 H24         2.6277    0.2446    5.1656 H         1 <0>         0.1420
     57 H25         3.5561   -0.0757    2.9077 H         1 <0>         0.1483
     58 H26        -3.6140   -1.3945   -1.1161 H         1 <0>         0.4324
     59 H27        -9.2945   -5.7388   -6.9799 H         1 <0>         0.4533
@<TRIPOS>BOND
     1    1    6 ar
     2    1    2 ar
     3    1   34 1
     4    2    3 ar
     5    2   35 1
     6    3    4 ar
     7    3   23 1
     8    4    5 ar
     9    4   36 1
    10    5    6 ar
    11    5   37 1
    12    6    7 1
    13    7    8 1
    14    7   38 1
    15    7   39 1
    16    8    9 1
    17    8   40 1
    18    8   41 1
    19    9   10 1
    20    9   42 1
    21    9   58 1
    22   10   11 1
    23   10   43 1
    24   10   44 1
    25   11   12 1
    26   11   13 1
    27   11   22 1
    28   13   14 1
    29   13   45 1
    30   13   46 1
    31   14   15 1
    32   15   20 ar
    33   15   16 ar
    34   16   17 ar
    35   16   47 1
    36   17   18 ar
    37   17   48 1
    38   18   19 ar
    39   18   21 1
    40   19   20 ar
    41   19   59 1
    42   20   49 1
    43   21   50 1
    44   21   51 1
    45   22   52 1
    46   23   24 1
    47   23   53 1
    48   24   25 2
    49   24   26 2
    50   24   27 1
    51   27   32 ar
    52   27   28 ar
    53   28   29 ar
    54   28   54 1
    55   29   30 ar
    56   29   55 1
    57   30   31 ar
    58   30   33 1
    59   31   32 ar
    60   31   56 1
    61   32   57 1
@<TRIPOS>MOLECULE
CHEMBL64201
   57    59     0     0     0
SMALL
USER_CHARGES

@<TRIPOS>ATOM
      1 C1         -0.0167    1.3786    0.0096 C.ar      1 <0>        -0.0637
      2 C2          1.1689    2.0869    0.0021 C.ar      1 <0>        -0.1801
      3 C3          2.3811    1.4088   -0.0131 C.ar      1 <0>         0.2961
      4 C4          2.3964    0.0198   -0.0206 C.ar      1 <0>        -0.2646
      5 C5          1.2071   -0.6823   -0.0130 C.ar      1 <0>        -0.0475
      6 C6          0.0021   -0.0041    0.0020 C.ar      1 <0>        -0.2349
      7 C7         -1.2936   -0.7736    0.0107 C.3       1 <0>        -0.0717
      8 C8         -1.7464   -1.0262   -1.4288 C.3       1 <0>        -0.0110
      9 N1         -3.0094   -1.7763   -1.4203 N.4       1 <0>        -0.5038
     10 C9         -3.4441   -2.0189   -2.8024 C.3       1 <0>        -0.0424
     11 C10        -4.7596   -2.8002   -2.7935 C.3       1 <0>         0.0872
     12 H1         -5.5213   -2.2232   -2.2690 H         1 <0>         0.1344
     13 C11        -5.2124   -3.0528   -4.2330 C.3       1 <0>         0.0276
     14 O1         -6.4968   -3.6791   -4.2254 O.3       1 <0>        -0.2995
     15 C12        -7.0471   -3.9742   -5.4337 C.ar      1 <0>         0.0067
     16 C13        -8.2989   -4.5799   -5.5087 C.ar      1 <0>        -0.0522
     17 C14        -8.8206   -4.8623   -6.7580 C.ar      1 <0>        -0.1981
     18 C15        -8.0828   -4.5341   -7.8904 C.ar      1 <0>         0.3819
     19 N2         -6.8961   -3.9590   -7.7805 N.ar      1 <0>        -0.5144
     20 C16        -6.3718   -3.6707   -6.6038 C.ar      1 <0>         0.0724
     21 N3         -8.5981   -4.8143   -9.1534 N.pl3     1 <0>        -0.8511
     22 O2         -4.5668   -4.0502   -2.1285 O.3       1 <0>        -0.5450
     23 N4          3.5820    2.1220   -0.0212 N.2       1 <0>        -1.0812
     24 S1          5.0262    1.3117   -0.0392 S.o2      1 <0>         2.6071
     25 O3          5.1229    0.6264    1.2018 O.2       1 <0>        -1.0216
     26 O4          5.0987    0.6388   -1.2887 O.2       1 <0>        -1.0238
     27 C17         6.3041    2.5247   -0.0456 C.ar      1 <0>        -0.6030
     28 C18         6.7898    3.0106   -1.2452 C.ar      1 <0>        -0.0194
     29 C19         7.7923    3.9622   -1.2505 C.ar      1 <0>        -0.1105
     30 C20         8.3094    4.4282   -0.0556 C.ar      1 <0>        -0.0617
     31 C21         7.8234    3.9419    1.1444 C.ar      1 <0>        -0.1101
     32 C22         6.8170    2.9945    1.1491 C.ar      1 <0>        -0.0190
     33 I1          9.8294    5.8700   -0.0631 I         1 <0>        -0.0400
     34 H2         -0.9595    1.9052    0.0260 H         1 <0>         0.1051
     35 H3          1.1535    3.1668    0.0077 H         1 <0>         0.1171
     36 H4          3.3371   -0.5105   -0.0328 H         1 <0>         0.1015
     37 H5          1.2182   -1.7622   -0.0189 H         1 <0>         0.1022
     38 H6         -1.1466   -1.7270    0.5180 H         1 <0>         0.0801
     39 H7         -2.0553   -0.1966    0.5352 H         1 <0>         0.0810
     40 H8         -1.8935   -0.0728   -1.9361 H         1 <0>         0.1318
     41 H9         -0.9847   -1.6032   -1.9533 H         1 <0>         0.1308
     42 H10        -2.8733   -2.6589   -0.9507 H         1 <0>         0.4303
     43 H11        -3.5912   -1.0654   -3.3097 H         1 <0>         0.1457
     44 H12        -2.6825   -2.5958   -3.3269 H         1 <0>         0.1384
     45 H13        -5.2738   -2.1042   -4.7664 H         1 <0>         0.0814
     46 H14        -4.4938   -3.7038   -4.7310 H         1 <0>         0.0760
     47 H15        -8.8493   -4.8237   -4.6121 H         1 <0>         0.1444
     48 H16        -9.7885   -5.3319   -6.8530 H         1 <0>         0.1421
     49 H17        -5.4026   -3.1969   -6.5531 H         1 <0>         0.1543
     50 H18        -9.4673   -5.2361   -9.2399 H         1 <0>         0.4104
     51 H19        -8.0878   -4.5877   -9.9466 H         1 <0>         0.4060
     52 H20        -3.9011   -4.6169   -2.5417 H         1 <0>         0.3897
     53 H21         6.3861    2.6464   -2.1784 H         1 <0>         0.1449
     54 H22         8.1719    4.3415   -2.1878 H         1 <0>         0.1352
     55 H23         8.2271    4.3057    2.0777 H         1 <0>         0.1355
     56 H24         6.4340    2.6182    2.0862 H         1 <0>         0.1456
     57 H25        -3.7145   -1.2423   -0.9348 H         1 <0>         0.4274
@<TRIPOS>BOND
     1    1    6 ar
     2    1    2 ar
     3    1   34 1
     4    2    3 ar
     5    2   35 1
     6    3    4 ar
     7    3   23 1
     8    4    5 ar
     9    4   36 1
    10    5    6 ar
    11    5   37 1
    12    6    7 1
    13    7    8 1
    14    7   38 1
    15    7   39 1
    16    8    9 1
    17    8   40 1
    18    8   41 1
    19    9   10 1
    20    9   42 1
    21    9   57 1
    22   10   11 1
    23   10   43 1
    24   10   44 1
    25   11   12 1
    26   11   13 1
    27   11   22 1
    28   13   14 1
    29   13   45 1
    30   13   46 1
    31   14   15 1
    32   15   20 ar
    33   15   16 ar
    34   16   17 ar
    35   16   47 1
    36   17   18 ar
    37   17   48 1
    38   18   19 ar
    39   18   21 1
    40   19   20 ar
    41   20   49 1
    42   21   50 1
    43   21   51 1
    44   22   52 1
    45   23   24 1
    46   24   25 2
    47   24   26 2
    48   24   27 1
    49   27   32 ar
    50   27   28 ar
    51   28   29 ar
    52   28   53 1
    53   29   30 ar
    54   29   54 1
    55   30   31 ar
    56   30   33 1
    57   31   32 ar
    58   31   55 1
    59   32   56 1
@<TRIPOS>MOLECULE
CHEMBL445
   42    44     0     0     0
SMALL
USER_CHARGES

@<TRIPOS>ATOM
      1 C1         -0.0178    1.4648    0.0101 C.3       1 <0>        -0.0473
      2 N1          0.0021   -0.0041    0.0020 N.4       1 <0>        -0.5104
      3 C2         -1.3761   -0.5125    0.0124 C.3       1 <0>        -0.0075
      4 C3         -1.3553   -2.0424    0.0040 C.3       1 <0>        -0.1205
      5 C4         -2.7691   -2.5640    0.0147 C.2       1 <0>        -0.1701
      6 C5         -3.1759   -3.4141   -0.9354 C.2       1 <0>         0.0084
      7 C6         -2.2617   -3.8737   -2.0162 C.ar      1 <0>        -0.0603
      8 C7         -1.0502   -4.4584   -1.6510 C.ar      1 <0>        -0.1120
      9 C8         -0.1817   -4.9254   -2.6144 C.ar      1 <0>        -0.1225
     10 C9         -0.5309   -4.8091   -3.9481 C.ar      1 <0>        -0.1072
     11 C10        -1.7216   -4.2226   -4.3099 C.ar      1 <0>        -0.1263
     12 C11        -2.6129   -3.7258   -3.3561 C.ar      1 <0>        -0.0535
     13 C12        -3.8344   -3.0498   -3.9297 C.3       1 <0>        -0.0765
     14 C13        -4.7567   -2.4533   -2.8869 C.3       1 <0>        -0.0806
     15 C14        -5.3648   -3.4987   -1.9877 C.ar      1 <0>        -0.0737
     16 C15        -4.5615   -3.9515   -0.9605 C.ar      1 <0>        -0.0697
     17 C16        -5.0352   -4.8627   -0.0270 C.ar      1 <0>        -0.0955
     18 C17        -6.3272   -5.3414   -0.1696 C.ar      1 <0>        -0.1191
     19 C18        -7.1195   -4.9199   -1.2225 C.ar      1 <0>        -0.1080
     20 C19        -6.6408   -3.9814   -2.1491 C.ar      1 <0>        -0.1083
     21 H1          1.0047    1.8421    0.0024 H         1 <0>         0.1266
     22 H2         -0.5450    1.8259   -0.8730 H         1 <0>         0.1232
     23 H3         -0.5280    1.8163    0.9069 H         1 <0>         0.1239
     24 H4          0.4744   -0.3295   -0.8281 H         1 <0>         0.4301
     25 H5         -1.8863   -0.1610    0.9092 H         1 <0>         0.1332
     26 H6         -1.9033   -0.1515   -0.8706 H         1 <0>         0.1314
     27 H7         -0.8451   -2.3939   -0.8928 H         1 <0>         0.0991
     28 H8         -0.8281   -2.4035    0.8871 H         1 <0>         0.0962
     29 H9         -3.4541   -2.2517    0.7892 H         1 <0>         0.1310
     30 H10        -0.7900   -4.5458   -0.6065 H         1 <0>         0.1235
     31 H11         0.7582   -5.3762   -2.3319 H         1 <0>         0.1290
     32 H12         0.1367   -5.1814   -4.7112 H         1 <0>         0.1265
     33 H13        -1.9733   -4.1443   -5.3573 H         1 <0>         0.1247
     34 H14        -3.5084   -2.2546   -4.6003 H         1 <0>         0.0855
     35 H15        -4.3952   -3.7815   -4.5113 H         1 <0>         0.0834
     36 H16        -4.1905   -1.7497   -2.2766 H         1 <0>         0.0703
     37 H17        -5.5577   -1.9136   -3.3920 H         1 <0>         0.0793
     38 H18        -4.4114   -5.1904    0.7915 H         1 <0>         0.1267
     39 H19        -6.7188   -6.0491    0.5460 H         1 <0>         0.1278
     40 H20        -8.1181   -5.3161   -1.3327 H         1 <0>         0.1275
     41 H21        -7.2557   -3.6486   -2.9723 H         1 <0>         0.1315
     42 H22         0.4901   -0.3383    0.8195 H         1 <0>         0.4302
@<TRIPOS>BOND
     1    1    2 1
     2    1   21 1
     3    1   22 1
     4    1   23 1
     5    2    3 1
     6    2   24 1
     7    2   42 1
     8    3    4 1
     9    3   25 1
    10    3   26 1
    11    4    5 1
    12    4   27 1
    13    4   28 1
    14    5    6 2
    15    5   29 1
    16    6   16 1
    17    6    7 1
    18    7   12 ar
    19    7    8 ar
    20    8    9 ar
    21    8   30 1
    22    9   10 ar
    23    9   31 1
    24   10   11 ar
    25   10   32 1
    26   11   12 ar
    27   11   33 1
    28   12   13 1
    29   13   14 1
    30   13   34 1
    31   13   35 1
    32   14   15 1
    33   14   36 1
    34   14   37 1
    35   15   20 ar
    36   15   16 ar
    37   16   17 ar
    38   17   18 ar
    39   17   38 1
    40   18   19 ar
    41   18   39 1
    42   19   20 ar
    43   19   40 1
    44   20   41 1
@<TRIPOS>MOLECULE
CHEMBL184538
   61    64     0     0     0
SMALL
USER_CHARGES

@<TRIPOS>ATOM
      1 C1          0.1908   -3.5273    5.0788 C.ar      1 <0>        -0.1141
      2 C2         -0.1836   -4.7518    4.5574 C.ar      1 <0>        -0.1142
      3 C3          0.3879   -5.2053    3.3848 C.ar      1 <0>        -0.1031
      4 C4          1.3356   -4.4374    2.7288 C.ar      1 <0>        -0.0995
      5 C5          1.7100   -3.2134    3.2501 C.ar      1 <0>        -0.0993
      6 C6          1.1357   -2.7602    4.4261 C.ar      1 <0>        -0.1020
      7 C7          2.7512   -2.5737    2.3568 C.3       1 <0>        -0.0791
      8 C8          3.2899   -3.7223    1.4777 C.3       1 <0>         0.0802
      9 C9          2.0993   -4.7041    1.4494 C.3       1 <0>        -0.0985
     10 O1          3.5944   -3.2551    0.1620 O.3       1 <0>        -0.2964
     11 C10         4.6563   -3.8261   -0.4651 C.ar      1 <0>         0.1512
     12 C11         5.0828   -3.3391   -1.6922 C.ar      1 <0>        -0.1491
     13 C12         6.1627   -3.9211   -2.3274 C.ar      1 <0>        -0.0661
     14 C13         6.8180   -4.9883   -1.7416 C.ar      1 <0>        -0.1510
     15 C14         6.3946   -5.4758   -0.5189 C.ar      1 <0>        -0.0643
     16 C15         5.3191   -4.8934    0.1233 C.ar      1 <0>        -0.2092
     17 C16         7.9955   -5.6216   -2.4370 C.3       1 <0>        -0.0944
     18 C17         9.2833   -4.9206   -1.9999 C.3       1 <0>        -0.0077
     19 N1         10.4311   -5.5379   -2.6778 N.4       1 <0>        -0.5058
     20 C18        11.6676   -4.8649   -2.2582 C.3       1 <0>        -0.0419
     21 C19        12.8631   -5.5078   -2.9642 C.3       1 <0>         0.1373
     22 H1         12.7439   -5.4091   -4.0432 H         1 <0>         0.1340
     23 C20        14.1315   -4.8173   -2.5338 C.ar      1 <0>        -0.1306
     24 C21        14.7754   -5.2162   -1.3768 C.ar      1 <0>        -0.1091
     25 C22        15.9391   -4.5863   -0.9766 C.ar      1 <0>        -0.1158
     26 C23        16.4636   -3.5523   -1.7352 C.ar      1 <0>         0.0952
     27 C24        15.8158   -3.1503   -2.9010 C.ar      1 <0>         0.1291
     28 C25        14.6515   -3.7909   -3.2992 C.ar      1 <0>        -0.1028
     29 N2         16.3416   -2.1053   -3.6722 N.am      1 <0>        -0.6750
     30 C26        16.0616   -2.0322   -4.9885 C.2       1 <0>         0.4952
     31 O2         15.4403   -2.9241   -5.5268 O.2       1 <0>        -0.5332
     32 O3         17.6076   -2.9312   -1.3424 O.3       1 <0>        -0.4927
     33 O4         12.9330   -6.8922   -2.6174 O.3       1 <0>        -0.5464
     34 H2         -0.2583   -3.1690    5.9933 H         1 <0>         0.1287
     35 H3         -0.9221   -5.3531    5.0668 H         1 <0>         0.1284
     36 H4          0.0951   -6.1621    2.9783 H         1 <0>         0.1226
     37 H5          1.4274   -1.8036    4.8338 H         1 <0>         0.1237
     38 H6          2.2945   -1.8037    1.7349 H         1 <0>         0.0974
     39 H7          3.5551   -2.1482    2.9575 H         1 <0>         0.0858
     40 H8          4.1631   -4.1852    1.9374 H         1 <0>         0.0944
     41 H9          2.4581   -5.7332    1.4306 H         1 <0>         0.0810
     42 H10         1.4672   -4.5072    0.5835 H         1 <0>         0.0954
     43 H11         4.5707   -2.5060   -2.1505 H         1 <0>         0.1379
     44 H12         6.4951   -3.5423   -3.2826 H         1 <0>         0.1317
     45 H13         6.9080   -6.3098   -0.0635 H         1 <0>         0.1271
     46 H14         4.9915   -5.2717    1.0803 H         1 <0>         0.1364
     47 H15         8.0489   -6.6776   -2.1724 H         1 <0>         0.0947
     48 H16         7.8763   -5.5229   -3.5159 H         1 <0>         0.0955
     49 H17         9.2300   -3.8645   -2.2645 H         1 <0>         0.1333
     50 H18         9.4025   -5.0192   -0.9210 H         1 <0>         0.1321
     51 H19        10.4805   -6.5154   -2.4329 H         1 <0>         0.4317
     52 H20        11.6143   -3.8088   -2.5228 H         1 <0>         0.1442
     53 H21        11.7868   -4.9635   -1.1792 H         1 <0>         0.1374
     54 H22        14.3678   -6.0218   -0.7841 H         1 <0>         0.1283
     55 H23        16.4393   -4.9001   -0.0723 H         1 <0>         0.1420
     56 H24        14.1491   -3.4846   -4.2049 H         1 <0>         0.1544
     57 H25        16.9072   -1.4344   -3.2587 H         1 <0>         0.4232
     58 H26        16.3903   -1.1794   -5.5640 H         1 <0>         0.1555
     59 H27        18.4140   -3.3335   -1.6932 H         1 <0>         0.3992
     60 H28        13.0394   -7.0555   -1.6702 H         1 <0>         0.3876
     61 H29        10.3208   -5.4465   -3.6766 H         1 <0>         0.4299
@<TRIPOS>BOND
     1    1    6 ar
     2    1    2 ar
     3    1   34 1
     4    2    3 ar
     5    2   35 1
     6    3    4 ar
     7    3   36 1
     8    4    9 1
     9    4    5 ar
    10    5    6 ar
    11    5    7 1
    12    6   37 1
    13    7    8 1
    14    7   38 1
    15    7   39 1
    16    8    9 1
    17    8   10 1
    18    8   40 1
    19    9   41 1
    20    9   42 1
    21   10   11 1
    22   11   16 ar
    23   11   12 ar
    24   12   13 ar
    25   12   43 1
    26   13   14 ar
    27   13   44 1
    28   14   15 ar
    29   14   17 1
    30   15   16 ar
    31   15   45 1
    32   16   46 1
    33   17   18 1
    34   17   47 1
    35   17   48 1
    36   18   19 1
    37   18   49 1
    38   18   50 1
    39   19   20 1
    40   19   51 1
    41   19   61 1
    42   20   21 1
    43   20   52 1
    44   20   53 1
    45   21   22 1
    46   21   23 1
    47   21   33 1
    48   23   28 ar
    49   23   24 ar
    50   24   25 ar
    51   24   54 1
    52   25   26 ar
    53   25   55 1
    54   26   27 ar
    55   26   32 1
    56   27   28 ar
    57   27   29 1
    58   28   56 1
    59   29   30 am
    60   29   57 1
    61   30   31 2
    62   30   58 1
    63   32   59 1
    64   33   60 1
@<TRIPOS>MOLECULE
CHEMBL181964
   64    66     0     0     0
SMALL
USER_CHARGES

@<TRIPOS>ATOM
      1 C1         -0.0187    1.5258    0.0104 C.3       1 <0>        -0.1843
      2 C2          0.0021   -0.0041    0.0020 C.3       1 <0>         0.0273
      3 H1          0.5293   -0.3651    0.8851 H         1 <0>         0.1396
      4 C3          0.7182   -0.4975   -1.2568 C.3       1 <0>        -0.0579
      5 C4          0.8473   -1.9981   -1.2057 C.2       1 <0>        -0.2302
      6 C5          1.9041   -2.6937   -0.7564 C.2       1 <0>         0.1119
      7 N1          1.6592   -4.0349   -0.8646 N.pl3     1 <0>        -0.5697
      8 H2          2.2753   -4.7370   -0.6031 H         1 <0>         0.4293
      9 C6          0.4058   -4.2399   -1.4002 C.ar      1 <0>         0.1200
     10 C7         -0.1590   -2.9739   -1.6310 C.ar      1 <0>        -0.1030
     11 C8         -1.4436   -2.8707   -2.1710 C.ar      1 <0>        -0.0877
     12 C9         -2.1488   -4.0022   -2.4700 C.ar      1 <0>        -0.1081
     13 C10        -1.6006   -5.2565   -2.2421 C.ar      1 <0>        -0.1034
     14 C11        -0.3282   -5.3834   -1.7167 C.ar      1 <0>         0.0744
     15 O1          0.1992   -6.6167   -1.4948 O.3       1 <0>        -0.6606
     16 S1         -0.1065   -7.1817   -0.1151 S.o2      1 <0>         2.5868
     17 O2          0.7331   -8.3219    0.0040 O.2       1 <0>        -0.9178
     18 O3          0.0398   -6.0788    0.7690 O.2       1 <0>        -0.9575
     19 C12        -1.8455   -7.6918   -0.1951 C.3       1 <0>        -0.6935
     20 N2         -1.3761   -0.5125    0.0124 N.4       1 <0>        -0.5061
     21 C13        -2.0260   -0.1396    1.2760 C.3       1 <0>        -0.0464
     22 C14        -3.4614   -0.6692    1.2868 C.3       1 <0>         0.1354
     23 H3         -3.4489   -1.7549    1.1913 H         1 <0>         0.1284
     24 C15        -4.1282   -0.2867    2.5830 C.ar      1 <0>        -0.0893
     25 C16        -4.7304    0.9519    2.7108 C.ar      1 <0>        -0.1695
     26 C17        -5.3429    1.3070    3.8984 C.ar      1 <0>        -0.0605
     27 C18        -5.3556    0.4252    4.9614 C.ar      1 <0>        -0.1827
     28 C19        -4.7522   -0.8195    4.8364 C.ar      1 <0>         0.2265
     29 C20        -4.1422   -1.1752    3.6398 C.ar      1 <0>        -0.1837
     30 N3         -4.7632   -1.7137    5.9093 N.pl3     1 <0>        -0.7378
     31 C21        -5.4117   -1.3391    7.1684 C.3       1 <0>         0.1577
     32 C22        -5.2839   -2.4707    8.1554 C.2       1 <0>        -0.1539
     33 C23        -4.3033   -2.4746    9.0241 C.2       1 <0>        -0.1588
     34 C24        -6.2841   -3.5979    8.1431 C.3       1 <0>        -0.1213
     35 O4         -4.1863   -0.1032    0.1931 O.3       1 <0>        -0.5472
     36 H4          1.0039    1.9031    0.0027 H         1 <0>         0.1079
     37 H5         -0.5459    1.8868   -0.8726 H         1 <0>         0.0838
     38 H6         -0.5289    1.8773    0.9072 H         1 <0>         0.0818
     39 H7          0.1430   -0.2121   -2.1375 H         1 <0>         0.0974
     40 H8          1.7103   -0.0491   -1.3098 H         1 <0>         0.1214
     41 H9          2.8129   -2.2587   -0.3676 H         1 <0>         0.1858
     42 H10        -1.8783   -1.8987   -2.3513 H         1 <0>         0.1301
     43 H11        -3.1416   -3.9196   -2.8869 H         1 <0>         0.1495
     44 H12        -2.1705   -6.1415   -2.4837 H         1 <0>         0.1527
     45 H13        -1.9681   -8.4435   -0.9748 H         1 <0>         0.1397
     46 H14        -2.1454   -8.1119    0.7649 H         1 <0>         0.1422
     47 H15        -2.4678   -6.8266   -0.4234 H         1 <0>         0.1312
     48 H16        -1.8879   -0.1129   -0.7598 H         1 <0>         0.4255
     49 H17        -1.4732   -0.5714    2.1102 H         1 <0>         0.1430
     50 H18        -2.0386    0.9461    1.3715 H         1 <0>         0.1403
     51 H19        -4.7219    1.6433    1.8812 H         1 <0>         0.1181
     52 H20        -5.8115    2.2752    3.9951 H         1 <0>         0.1288
     53 H21        -5.8339    0.7034    5.8889 H         1 <0>         0.1270
     54 H22        -3.6756   -2.1439    3.5379 H         1 <0>         0.1228
     55 H23        -4.3415   -2.5828    5.8208 H         1 <0>         0.4026
     56 H24        -4.9319   -0.4480    7.5732 H         1 <0>         0.0679
     57 H25        -6.4665   -1.1330    6.9866 H         1 <0>         0.0698
     58 H26        -4.2117   -3.2855    9.7314 H         1 <0>         0.1062
     59 H27        -3.5865   -1.6668    9.0329 H         1 <0>         0.1010
     60 H28        -7.0197   -3.4223    7.3581 H         1 <0>         0.0626
     61 H29        -5.7683   -4.5393    7.9538 H         1 <0>         0.0676
     62 H30        -6.7878   -3.6473    9.1085 H         1 <0>         0.0716
     63 H31        -4.2382    0.8622    0.2132 H         1 <0>         0.3880
     64 H32        -1.3644   -1.5176   -0.0760 H         1 <0>         0.4274
@<TRIPOS>BOND
     1    1    2 1
     2    1   36 1
     3    1   37 1
     4    1   38 1
     5    2    3 1
     6    2    4 1
     7    2   20 1
     8    4    5 1
     9    4   39 1
    10    4   40 1
    11    5   10 1
    12    5    6 2
    13    6    7 1
    14    6   41 1
    15    7    8 1
    16    7    9 1
    17    9   14 ar
    18    9   10 ar
    19   10   11 ar
    20   11   12 ar
    21   11   42 1
    22   12   13 ar
    23   12   43 1
    24   13   14 ar
    25   13   44 1
    26   14   15 1
    27   15   16 1
    28   16   17 2
    29   16   18 2
    30   16   19 1
    31   19   45 1
    32   19   46 1
    33   19   47 1
    34   20   21 1
    35   20   48 1
    36   20   64 1
    37   21   22 1
    38   21   49 1
    39   21   50 1
    40   22   23 1
    41   22   24 1
    42   22   35 1
    43   24   29 ar
    44   24   25 ar
    45   25   26 ar
    46   25   51 1
    47   26   27 ar
    48   26   52 1
    49   27   28 ar
    50   27   53 1
    51   28   29 ar
    52   28   30 1
    53   29   54 1
    54   30   31 1
    55   30   55 1
    56   31   32 1
    57   31   56 1
    58   31   57 1
    59   32   33 2
    60   32   34 1
    61   33   58 1
    62   33   59 1
    63   34   60 1
    64   34   61 1
    65   34   62 1
    66   35   63 1
@<TRIPOS>MOLECULE
CHEMBL430361
   63    66     0     0     0
SMALL
USER_CHARGES

@<TRIPOS>ATOM
      1 C1         -0.0187    1.5258    0.0104 C.3       1 <0>        -0.1840
      2 C2          0.0021   -0.0041    0.0020 C.3       1 <0>         0.0287
      3 H1         -1.0205   -0.3814    0.0098 H         1 <0>         0.1405
      4 C3          0.7421   -0.5109    1.2415 C.3       1 <0>        -0.0942
      5 C4          0.6567   -2.0144    1.2978 C.ar      1 <0>        -0.1476
      6 C5         -0.4042   -2.6192    1.9604 C.ar      1 <0>        -0.0834
      7 C6         -0.5014   -3.9910    2.0242 C.ar      1 <0>        -0.1104
      8 C7          0.4712   -4.7827    1.4195 C.ar      1 <0>         0.1211
      9 C8          1.5455   -4.1671    0.7480 C.ar      1 <0>        -0.1114
     10 C9          1.6190   -2.7691    0.6928 C.ar      1 <0>        -0.0773
     11 C10         2.3640   -5.2048    0.2400 C.2       1 <0>        -0.1062
     12 C11         1.7993   -6.3884    0.5950 C.2       1 <0>         0.0327
     13 N1          0.6456   -6.1423    1.3139 N.pl3     1 <0>        -0.5734
     14 H2          0.0559   -6.8177    1.6839 H         1 <0>         0.4225
     15 C12         2.3310   -7.7194    0.2657 C.2       1 <0>         0.5846
     16 O1          3.3592   -7.8219   -0.3762 O.2       1 <0>        -0.5051
     17 N2          1.6790   -8.8257    0.6750 N.am      1 <0>        -0.7219
     18 C13         2.2087  -10.1516    0.3470 C.3       1 <0>         0.2155
     19 C14         1.3001  -11.2105    0.9165 C.2       1 <0>         0.0059
     20 N3          0.2694  -11.7880    0.3513 N.2       1 <0>        -0.4944
     21 C15        -0.4341  -12.7063    0.9832 C.2       1 <0>         0.0279
     22 C16        -0.0409  -13.0237    2.2433 C.2       1 <0>        -0.2103
     23 S1          1.3682  -11.9429    2.4303 S.3       1 <0>         0.1358
     24 N4          0.6897   -0.4778   -1.2066 N.4       1 <0>        -0.5054
     25 C17        -0.0856   -0.0931   -2.3936 C.3       1 <0>        -0.0460
     26 C18         0.6305   -0.5866   -3.6524 C.3       1 <0>         0.1377
     27 H3          0.7239   -1.6719   -3.6155 H         1 <0>         0.1318
     28 C19        -0.1648   -0.1919   -4.8701 C.ar      1 <0>        -0.1525
     29 C20         0.0065    1.0608   -5.4302 C.ar      1 <0>        -0.0896
     30 C21        -0.7216    1.4251   -6.5460 C.ar      1 <0>        -0.1374
     31 C22        -1.6251    0.5327   -7.1052 C.ar      1 <0>         0.1324
     32 C23        -1.7947   -0.7234   -6.5417 C.ar      1 <0>        -0.1102
     33 C24        -1.0602   -1.0849   -5.4287 C.ar      1 <0>        -0.0622
     34 C25        -2.7751   -1.6951   -7.1464 C.3       1 <0>         0.1176
     35 O2         -2.7686   -2.9093   -6.3930 O.3       1 <0>        -0.5750
     36 O3         -2.3429    0.8889   -8.2028 O.3       1 <0>        -0.4945
     37 O4          1.9312    0.0013   -3.7219 O.3       1 <0>        -0.5463
     38 H4          1.0039    1.9031    0.0027 H         1 <0>         0.0840
     39 H5         -0.5459    1.8868   -0.8726 H         1 <0>         0.0814
     40 H6         -0.5289    1.8773    0.9072 H         1 <0>         0.1081
     41 H7          1.7879   -0.2080    1.1895 H         1 <0>         0.0979
     42 H8          0.2852   -0.0874    2.1360 H         1 <0>         0.1213
     43 H9         -1.1599   -2.0072    2.4302 H         1 <0>         0.1349
     44 H10        -1.3296   -4.4517    2.5423 H         1 <0>         0.1321
     45 H11         2.4374   -2.2900    0.1760 H         1 <0>         0.1263
     46 H12         3.2739   -5.0781   -0.3278 H         1 <0>         0.1633
     47 H13         0.8591   -8.7440    1.1868 H         1 <0>         0.3991
     48 H14         2.2629  -10.2635   -0.7359 H         1 <0>         0.1084
     49 H15         3.2057  -10.2604    0.7739 H         1 <0>         0.1037
     50 H16        -1.2847  -13.1840    0.5199 H         1 <0>         0.1788
     51 H17        -0.4615  -13.7352    2.9384 H         1 <0>         0.2029
     52 H18         1.6080   -0.0627   -1.2556 H         1 <0>         0.4279
     53 H19        -1.0777   -0.5415   -2.3406 H         1 <0>         0.1439
     54 H20        -0.1790    0.9922   -2.4305 H         1 <0>         0.1390
     55 H21         0.7098    1.7550   -4.9946 H         1 <0>         0.1279
     56 H22        -0.5880    2.4038   -6.9827 H         1 <0>         0.1399
     57 H23        -1.1889   -2.0643   -4.9920 H         1 <0>         0.1416
     58 H24        -3.7749   -1.2613   -7.1279 H         1 <0>         0.0701
     59 H25        -2.4894   -1.9055   -8.1771 H         1 <0>         0.0649
     60 H26        -3.3778   -3.5823   -6.7263 H         1 <0>         0.3925
     61 H27        -1.9127    0.6725   -9.0413 H         1 <0>         0.4006
     62 H28         1.9246    0.9676   -3.7575 H         1 <0>         0.3868
     63 H29         0.7761   -1.4825   -1.1724 H         1 <0>         0.4270
@<TRIPOS>BOND
     1    1    2 1
     2    1   38 1
     3    1   39 1
     4    1   40 1
     5    2    3 1
     6    2    4 1
     7    2   24 1
     8    4    5 1
     9    4   41 1
    10    4   42 1
    11    5   10 ar
    12    5    6 ar
    13    6    7 ar
    14    6   43 1
    15    7    8 ar
    16    7   44 1
    17    8   13 1
    18    8    9 ar
    19    9   10 ar
    20    9   11 1
    21   10   45 1
    22   11   12 2
    23   11   46 1
    24   12   13 1
    25   12   15 1
    26   13   14 1
    27   15   16 2
    28   15   17 am
    29   17   18 1
    30   17   47 1
    31   18   19 1
    32   18   48 1
    33   18   49 1
    34   19   23 1
    35   19   20 2
    36   20   21 1
    37   21   22 2
    38   21   50 1
    39   22   23 1
    40   22   51 1
    41   24   25 1
    42   24   52 1
    43   24   63 1
    44   25   26 1
    45   25   53 1
    46   25   54 1
    47   26   27 1
    48   26   28 1
    49   26   37 1
    50   28   33 ar
    51   28   29 ar
    52   29   30 ar
    53   29   55 1
    54   30   31 ar
    55   30   56 1
    56   31   32 ar
    57   31   36 1
    58   32   33 ar
    59   32   34 1
    60   33   57 1
    61   34   35 1
    62   34   58 1
    63   34   59 1
    64   35   60 1
    65   36   61 1
    66   37   62 1
@<TRIPOS>MOLECULE
CHEMBL13003
   66    68     0     0     0
SMALL
USER_CHARGES

@<TRIPOS>ATOM
      1 C1         -0.0167    1.3781    0.0096 C.ar      1 <0>        -0.1269
      2 C2          1.1709    2.0855    0.0021 C.ar      1 <0>        -0.1186
      3 C3          2.3773    1.4107   -0.0130 C.ar      1 <0>        -0.1178
      4 C4          2.3960    0.0285   -0.0201 C.ar      1 <0>        -0.0821
      5 C5          1.2084   -0.6789   -0.0117 C.ar      1 <0>        -0.1181
      6 C6          0.0021   -0.0041    0.0020 C.ar      1 <0>        -0.1189
      7 C7          3.7112   -0.7071   -0.0376 C.3       1 <0>        -0.0738
      8 C8          4.1714   -0.9633    1.3989 C.3       1 <0>        -0.1046
      9 C9          5.5066   -1.7102    1.3812 C.3       1 <0>        -0.5965
     10 S1          6.0522   -2.0139    3.0843 S.o2      1 <0>         2.5314
     11 O1          6.3881   -0.7866    3.7169 O.2       1 <0>        -1.0236
     12 O2          5.1826   -2.9416    3.7188 O.2       1 <0>        -1.0261
     13 N1          7.4913   -2.8190    2.9330 N.2       1 <0>        -1.0937
     14 C10         8.1952   -3.2117    4.0737 C.ar      1 <0>         0.2999
     15 C11         7.6866   -2.9328    5.3359 C.ar      1 <0>        -0.2582
     16 C12         8.3848   -3.3229    6.4617 C.ar      1 <0>        -0.0508
     17 C13         9.5893   -3.9901    6.3336 C.ar      1 <0>        -0.2391
     18 C14        10.0985   -4.2694    5.0786 C.ar      1 <0>        -0.0647
     19 C15         9.4025   -3.8872    3.9486 C.ar      1 <0>        -0.1853
     20 C16        10.3489   -4.4134    7.5643 C.3       1 <0>        -0.0704
     21 C17         9.9068   -5.8184    7.9785 C.3       1 <0>        -0.0109
     22 N2         10.6473   -6.2310    9.1782 N.4       1 <0>        -0.5038
     23 C18        10.2228   -7.5800    9.5759 C.3       1 <0>        -0.0418
     24 C19        10.9940   -8.0097   10.8254 C.3       1 <0>         0.0863
     25 H1         10.7901   -7.3108   11.6366 H         1 <0>         0.1348
     26 C20        10.5519   -9.4147   11.2396 C.3       1 <0>         0.0285
     27 O3         11.1850   -9.7698   12.4704 O.3       1 <0>        -0.3012
     28 C21        10.8974  -10.9969   12.9811 C.ar      1 <0>         0.1124
     29 C22        10.0284  -11.8421   12.3072 C.ar      1 <0>        -0.1913
     30 C23         9.7362  -13.0886   12.8259 C.ar      1 <0>        -0.1051
     31 C24        10.3122  -13.4950   14.0203 C.ar      1 <0>         0.0764
     32 C25        11.1819  -12.6502   14.6937 C.ar      1 <0>        -0.1034
     33 C26        11.4774  -11.4054   14.1729 C.ar      1 <0>        -0.1279
     34 O4         10.0239  -14.7217   14.5314 O.3       1 <0>        -0.4964
     35 O5         12.3947   -8.0152   10.5423 O.3       1 <0>        -0.5445
     36 H2         -0.9591    1.9053    0.0259 H         1 <0>         0.1203
     37 H3          1.1563    3.1654    0.0076 H         1 <0>         0.1215
     38 H4          3.3051    1.9634   -0.0196 H         1 <0>         0.1226
     39 H5          1.2231   -1.7588   -0.0176 H         1 <0>         0.1222
     40 H6         -0.9258   -0.5567    0.0082 H         1 <0>         0.1213
     41 H7          3.5884   -1.6586   -0.5549 H         1 <0>         0.0763
     42 H8          4.4573   -0.1052   -0.5563 H         1 <0>         0.0766
     43 H9          4.2941   -0.0118    1.9163 H         1 <0>         0.0747
     44 H10         3.4252   -1.5652    1.9176 H         1 <0>         0.0743
     45 H11         5.3838   -2.6617    0.8639 H         1 <0>         0.1230
     46 H12         6.2527   -1.1082    0.8625 H         1 <0>         0.1235
     47 H13         6.7463   -2.4111    5.4367 H         1 <0>         0.1046
     48 H14         7.9900   -3.1064    7.4434 H         1 <0>         0.1001
     49 H15        11.0394   -4.7907    4.9820 H         1 <0>         0.1031
     50 H16         9.7986   -4.1096    2.9687 H         1 <0>         0.1151
     51 H17        11.4173   -4.4176    7.3484 H         1 <0>         0.0801
     52 H18        10.1450   -3.7145    8.3755 H         1 <0>         0.0792
     53 H19         8.8384   -5.8142    8.1945 H         1 <0>         0.1310
     54 H20        10.1108   -6.5174    7.1673 H         1 <0>         0.1309
     55 H21        11.6363   -6.2349    8.9783 H         1 <0>         0.4300
     56 H22         9.1544   -7.5758    9.7918 H         1 <0>         0.1454
     57 H23        10.4268   -8.2789    8.7647 H         1 <0>         0.1381
     58 H24         9.4698   -9.4315   11.3695 H         1 <0>         0.0826
     59 H25        10.8361  -10.1279   10.4658 H         1 <0>         0.0770
     60 H26         9.5799  -11.5256   11.3771 H         1 <0>         0.1302
     61 H27         9.0590  -13.7464   12.3015 H         1 <0>         0.1348
     62 H28        11.6301  -12.9665   15.6240 H         1 <0>         0.1401
     63 H29        12.1576  -10.7490   14.6953 H         1 <0>         0.1382
     64 H30        10.6206  -15.4220   14.2337 H         1 <0>         0.3922
     65 H31        12.6494   -8.6164    9.8290 H         1 <0>         0.3893
     66 H32        10.4585   -5.5840    9.9291 H         1 <0>         0.4278
@<TRIPOS>BOND
     1    1    6 ar
     2    1    2 ar
     3    1   36 1
     4    2    3 ar
     5    2   37 1
     6    3    4 ar
     7    3   38 1
     8    4    5 ar
     9    4    7 1
    10    5    6 ar
    11    5   39 1
    12    6   40 1
    13    7    8 1
    14    7   41 1
    15    7   42 1
    16    8    9 1
    17    8   43 1
    18    8   44 1
    19    9   10 1
    20    9   45 1
    21    9   46 1
    22   10   11 2
    23   10   12 2
    24   10   13 1
    25   13   14 1
    26   14   19 ar
    27   14   15 ar
    28   15   16 ar
    29   15   47 1
    30   16   17 ar
    31   16   48 1
    32   17   18 ar
    33   17   20 1
    34   18   19 ar
    35   18   49 1
    36   19   50 1
    37   20   21 1
    38   20   51 1
    39   20   52 1
    40   21   22 1
    41   21   53 1
    42   21   54 1
    43   22   23 1
    44   22   55 1
    45   22   66 1
    46   23   24 1
    47   23   56 1
    48   23   57 1
    49   24   25 1
    50   24   26 1
    51   24   35 1
    52   26   27 1
    53   26   58 1
    54   26   59 1
    55   27   28 1
    56   28   33 ar
    57   28   29 ar
    58   29   30 ar
    59   29   60 1
    60   30   31 ar
    61   30   61 1
    62   31   32 ar
    63   31   34 1
    64   32   33 ar
    65   32   62 1
    66   33   63 1
    67   34   64 1
    68   35   65 1
@<TRIPOS>MOLECULE
CHEMBL442225
   68    71     0     0     0
SMALL
USER_CHARGES

@<TRIPOS>ATOM
      1 C1         -0.0187    1.5258    0.0104 C.3       1 <0>        -0.1845
      2 C2          0.0021   -0.0041    0.0020 C.3       1 <0>         0.0277
      3 H1         -1.0205   -0.3814    0.0098 H         1 <0>         0.1399
      4 C3          0.7421   -0.5109    1.2415 C.3       1 <0>        -0.0603
      5 C4          0.6567   -2.0144    1.2978 C.2       1 <0>        -0.2211
      6 C5         -0.2494   -2.7380    1.9740 C.2       1 <0>         0.1005
      7 N1         -0.0125   -4.0730    1.7893 N.pl3     1 <0>        -0.5883
      8 H2         -0.5360   -4.7909    2.1784 H         1 <0>         0.4283
      9 C6          1.0797   -4.2454    0.9687 C.ar      1 <0>         0.1755
     10 C7          1.5430   -2.9635    0.6197 C.ar      1 <0>        -0.1360
     11 C8          2.6502   -2.8276   -0.2195 C.ar      1 <0>        -0.0500
     12 C9          3.2772   -3.9423   -0.7012 C.ar      1 <0>        -0.1447
     13 C10         2.8216   -5.2089   -0.3632 C.ar      1 <0>         0.0194
     14 C11         1.7362   -5.3660    0.4710 C.ar      1 <0>        -0.6559
     15 S1          1.1690   -6.9810    0.8890 S.o2      1 <0>         2.4890
     16 O1         -0.2215   -6.9639    0.5969 O.2       1 <0>        -0.9339
     17 O2          2.0436   -7.8625    0.1981 O.2       1 <0>        -0.9239
     18 C12         1.4299   -7.1180    2.6789 C.3       1 <0>        -0.6516
     19 N2          0.6897   -0.4778   -1.2066 N.4       1 <0>        -0.5067
     20 C13        -0.0856   -0.0931   -2.3936 C.3       1 <0>        -0.0483
     21 C14         0.6305   -0.5866   -3.6524 C.3       1 <0>         0.1357
     22 H3          0.7239   -1.6719   -3.6155 H         1 <0>         0.1299
     23 C15        -0.1648   -0.1919   -4.8701 C.ar      1 <0>        -0.1225
     24 C16         0.0062    1.0609   -5.4306 C.ar      1 <0>        -0.1152
     25 C17        -0.7218    1.4272   -6.5475 C.ar      1 <0>        -0.0841
     26 C18        -1.6223    0.5422   -7.1077 C.ar      1 <0>        -0.1346
     27 C19        -1.7961   -0.7168   -6.5476 C.ar      1 <0>         0.1589
     28 C20        -1.0592   -1.0835   -5.4283 C.ar      1 <0>        -0.1150
     29 N3         -2.7059   -1.6142   -7.1114 N.pl3     1 <0>        -1.0591
     30 S2         -2.7487   -1.8282   -8.7530 S.o2      1 <0>         2.6868
     31 O3         -3.7446   -2.8090   -9.0089 O.2       1 <0>        -0.9417
     32 O4         -2.7911   -0.5306   -9.3307 O.2       1 <0>        -0.9420
     33 C21        -1.2078   -2.5398   -9.2259 C.ar      1 <0>        -0.6270
     34 C22        -0.1433   -1.7227   -9.5607 C.ar      1 <0>        -0.0779
     35 C23         1.0675   -2.2770   -9.9328 C.ar      1 <0>        -0.0872
     36 C24         1.2179   -3.6495   -9.9710 C.ar      1 <0>        -0.1389
     37 C25         0.1511   -4.4730   -9.6350 C.ar      1 <0>         0.2020
     38 C26        -1.0626   -3.9127   -9.2565 C.ar      1 <0>        -0.1016
     39 N4          0.2997   -5.8613   -9.6724 N.pl3     1 <0>        -0.8746
     40 O5          1.9312    0.0013   -3.7219 O.3       1 <0>        -0.5454
     41 H4          1.0039    1.9031    0.0027 H         1 <0>         0.0839
     42 H5         -0.5459    1.8868   -0.8726 H         1 <0>         0.0823
     43 H6         -0.5289    1.8773    0.9072 H         1 <0>         0.1087
     44 H7          1.7879   -0.2080    1.1895 H         1 <0>         0.0968
     45 H8          0.2852   -0.0874    2.1360 H         1 <0>         0.1218
     46 H9         -1.0471   -2.3273    2.5752 H         1 <0>         0.1858
     47 H10         3.0099   -1.8451   -0.4873 H         1 <0>         0.1254
     48 H11         4.1338   -3.8366   -1.3504 H         1 <0>         0.1442
     49 H12         3.3272   -6.0803   -0.7524 H         1 <0>         0.1582
     50 H13         0.8565   -6.3445    3.1899 H         1 <0>         0.1216
     51 H14         1.1005   -8.0994    3.0200 H         1 <0>         0.1428
     52 H15         2.4893   -6.9923    2.9024 H         1 <0>         0.1392
     53 H16         1.6080   -0.0627   -1.2556 H         1 <0>         0.4260
     54 H17        -1.0777   -0.5415   -2.3406 H         1 <0>         0.1439
     55 H18        -0.1790    0.9922   -2.4305 H         1 <0>         0.1416
     56 H19         0.7097    1.7547   -4.9946 H         1 <0>         0.1264
     57 H20        -0.5864    2.4065   -6.9823 H         1 <0>         0.1403
     58 H21        -2.1909    0.8290   -7.9799 H         1 <0>         0.1663
     59 H22        -1.1890   -2.0633   -4.9928 H         1 <0>         0.1325
     60 H23        -3.3127   -2.1121   -6.5415 H         1 <0>         0.4296
     61 H24        -0.2582   -0.6492   -9.5317 H         1 <0>         0.1358
     62 H25         1.8965   -1.6361  -10.1943 H         1 <0>         0.1345
     63 H26         2.1638   -4.0818  -10.2621 H         1 <0>         0.1313
     64 H27        -1.8929   -4.5501   -8.9907 H         1 <0>         0.1380
     65 H28         1.1486   -6.2513   -9.9333 H         1 <0>         0.4033
     66 H29        -0.4460   -6.4354   -9.4376 H         1 <0>         0.4030
     67 H30         1.9246    0.9676   -3.7575 H         1 <0>         0.3881
     68 H31         0.7761   -1.4825   -1.1724 H         1 <0>         0.4271
@<TRIPOS>BOND
     1    1    2 1
     2    1   41 1
     3    1   42 1
     4    1   43 1
     5    2    3 1
     6    2    4 1
     7    2   19 1
     8    4    5 1
     9    4   44 1
    10    4   45 1
    11    5   10 1
    12    5    6 2
    13    6    7 1
    14    6   46 1
    15    7    8 1
    16    7    9 1
    17    9   14 ar
    18    9   10 ar
    19   10   11 ar
    20   11   12 ar
    21   11   47 1
    22   12   13 ar
    23   12   48 1
    24   13   14 ar
    25   13   49 1
    26   14   15 1
    27   15   16 2
    28   15   17 2
    29   15   18 1
    30   18   50 1
    31   18   51 1
    32   18   52 1
    33   19   20 1
    34   19   53 1
    35   19   68 1
    36   20   21 1
    37   20   54 1
    38   20   55 1
    39   21   22 1
    40   21   23 1
    41   21   40 1
    42   23   28 ar
    43   23   24 ar
    44   24   25 ar
    45   24   56 1
    46   25   26 ar
    47   25   57 1
    48   26   27 ar
    49   26   58 1
    50   27   28 ar
    51   27   29 1
    52   28   59 1
    53   29   30 1
    54   29   60 1
    55   30   31 2
    56   30   32 2
    57   30   33 1
    58   33   38 ar
    59   33   34 ar
    60   34   35 ar
    61   34   61 1
    62   35   36 ar
    63   35   62 1
    64   36   37 ar
    65   36   63 1
    66   37   38 ar
    67   37   39 1
    68   38   64 1
    69   39   65 1
    70   39   66 1
    71   40   67 1
@<TRIPOS>MOLECULE
CHEMBL442225
   67    70     0     0     0
SMALL
USER_CHARGES

@<TRIPOS>ATOM
      1 C1         -0.0187    1.5258    0.0104 C.3       1 <0>        -0.1835
      2 C2          0.0021   -0.0041    0.0020 C.3       1 <0>         0.0268
      3 H1          0.5293   -0.3651    0.8851 H         1 <0>         0.1391
      4 C3          0.7182   -0.4975   -1.2568 C.3       1 <0>        -0.0593
      5 C4          0.8473   -1.9981   -1.2057 C.2       1 <0>        -0.2163
      6 C5          1.9038   -2.6938   -0.7566 C.2       1 <0>         0.0963
      7 N1          1.6589   -4.0357   -0.8647 N.pl3     1 <0>        -0.5890
      8 H2          2.2755   -4.7375   -0.6034 H         1 <0>         0.4266
      9 C6          0.4070   -4.2415   -1.3997 C.ar      1 <0>         0.1756
     10 C7         -0.1589   -2.9742   -1.6309 C.ar      1 <0>        -0.1351
     11 C8         -1.4421   -2.8724   -2.1708 C.ar      1 <0>        -0.0458
     12 C9         -2.1446   -4.0061   -2.4690 C.ar      1 <0>        -0.1450
     13 C10        -1.5925   -5.2585   -2.2390 C.ar      1 <0>         0.0202
     14 C11        -0.3238   -5.3819   -1.7155 C.ar      1 <0>        -0.6574
     15 S1          0.3620   -6.9792   -1.4277 S.o2      1 <0>         2.4900
     16 O1          0.8036   -6.9463   -0.0774 O.2       1 <0>        -0.9319
     17 O2         -0.6511   -7.8879   -1.8366 O.2       1 <0>        -0.9252
     18 C12         1.7849   -7.0844   -2.5480 C.3       1 <0>        -0.6531
     19 N2         -1.3761   -0.5125    0.0124 N.4       1 <0>        -0.5063
     20 C13        -2.0260   -0.1396    1.2760 C.3       1 <0>        -0.0466
     21 C14        -3.4614   -0.6692    1.2868 C.3       1 <0>         0.1418
     22 H3         -3.4489   -1.7549    1.1913 H         1 <0>         0.1233
     23 C15        -4.1282   -0.2867    2.5830 C.ar      1 <0>        -0.1020
     24 C16        -4.7304    0.9519    2.7108 C.ar      1 <0>        -0.2200
     25 C17        -5.3429    1.3070    3.8984 C.ar      1 <0>        -0.0572
     26 C18        -5.3556    0.4252    4.9614 C.ar      1 <0>        -0.2490
     27 C19        -4.7522   -0.8195    4.8364 C.ar      1 <0>         0.2870
     28 C20        -4.1422   -1.1752    3.6398 C.ar      1 <0>        -0.1681
     29 N3         -4.7632   -1.7137    5.9093 N.2       1 <0>        -1.0871
     30 S2         -5.4963   -1.2903    7.3326 S.o2      1 <0>         2.6098
     31 O3         -4.7381   -0.2187    7.8767 O.2       1 <0>        -1.0284
     32 O4         -6.8855   -1.1771    7.0559 O.2       1 <0>        -1.0241
     33 C21        -5.3120   -2.6498    8.4381 C.ar      1 <0>        -0.5710
     34 C22        -6.2700   -3.6468    8.4726 C.ar      1 <0>        -0.0819
     35 C23        -6.1296   -4.7152    9.3390 C.ar      1 <0>        -0.0965
     36 C24        -5.0311   -4.7903   10.1729 C.ar      1 <0>        -0.1585
     37 C25        -4.0669   -3.7911   10.1405 C.ar      1 <0>         0.1890
     38 C26        -4.2085   -2.7216    9.2651 C.ar      1 <0>        -0.0999
     39 N4         -2.9548   -3.8639   10.9824 N.pl3     1 <0>        -0.8813
     40 O5         -4.1863   -0.1032    0.1931 O.3       1 <0>        -0.5540
     41 H4          1.0039    1.9031    0.0027 H         1 <0>         0.1044
     42 H5         -0.5459    1.8868   -0.8726 H         1 <0>         0.0815
     43 H6         -0.5289    1.8773    0.9072 H         1 <0>         0.0856
     44 H7          0.1430   -0.2121   -2.1375 H         1 <0>         0.0950
     45 H8          1.7103   -0.0491   -1.3098 H         1 <0>         0.1184
     46 H9          2.8126   -2.2588   -0.3677 H         1 <0>         0.1846
     47 H10        -1.8784   -1.9011   -2.3518 H         1 <0>         0.1267
     48 H11        -3.1374   -3.9268   -2.8867 H         1 <0>         0.1445
     49 H12        -2.1603   -6.1452   -2.4792 H         1 <0>         0.1575
     50 H13         2.4944   -6.2920   -2.3096 H         1 <0>         0.1212
     51 H14         2.2694   -8.0536   -2.4299 H         1 <0>         0.1403
     52 H15         1.4458   -6.9708   -3.5776 H         1 <0>         0.1377
     53 H16        -1.8879   -0.1129   -0.7598 H         1 <0>         0.4228
     54 H17        -1.4732   -0.5714    2.1102 H         1 <0>         0.1441
     55 H18        -2.0386    0.9461    1.3715 H         1 <0>         0.1392
     56 H19        -4.7219    1.6433    1.8812 H         1 <0>         0.0999
     57 H20        -5.8115    2.2752    3.9951 H         1 <0>         0.1087
     58 H21        -5.8339    0.7034    5.8889 H         1 <0>         0.1027
     59 H22        -3.6756   -2.1439    3.5379 H         1 <0>         0.1143
     60 H23        -7.1299   -3.5905    7.8217 H         1 <0>         0.1332
     61 H24        -6.8799   -5.4916    9.3639 H         1 <0>         0.1271
     62 H25        -4.9221   -5.6249   10.8497 H         1 <0>         0.1224
     63 H26        -3.4586   -1.9450    9.2345 H         1 <0>         0.1324
     64 H27        -2.8552   -4.6130   11.5906 H         1 <0>         0.3966
     65 H28        -2.2821   -3.1655   10.9589 H         1 <0>         0.3982
     66 H29        -4.2382    0.8622    0.2132 H         1 <0>         0.3841
     67 H30        -1.3644   -1.5176   -0.0760 H         1 <0>         0.4249
@<TRIPOS>BOND
     1    1    2 1
     2    1   41 1
     3    1   42 1
     4    1   43 1
     5    2    3 1
     6    2    4 1
     7    2   19 1
     8    4    5 1
     9    4   44 1
    10    4   45 1
    11    5   10 1
    12    5    6 2
    13    6    7 1
    14    6   46 1
    15    7    8 1
    16    7    9 1
    17    9   14 ar
    18    9   10 ar
    19   10   11 ar
    20   11   12 ar
    21   11   47 1
    22   12   13 ar
    23   12   48 1
    24   13   14 ar
    25   13   49 1
    26   14   15 1
    27   15   16 2
    28   15   17 2
    29   15   18 1
    30   18   50 1
    31   18   51 1
    32   18   52 1
    33   19   20 1
    34   19   53 1
    35   19   67 1
    36   20   21 1
    37   20   54 1
    38   20   55 1
    39   21   22 1
    40   21   23 1
    41   21   40 1
    42   23   28 ar
    43   23   24 ar
    44   24   25 ar
    45   24   56 1
    46   25   26 ar
    47   25   57 1
    48   26   27 ar
    49   26   58 1
    50   27   28 ar
    51   27   29 1
    52   28   59 1
    53   29   30 1
    54   30   31 2
    55   30   32 2
    56   30   33 1
    57   33   38 ar
    58   33   34 ar
    59   34   35 ar
    60   34   60 1
    61   35   36 ar
    62   35   61 1
    63   36   37 ar
    64   36   62 1
    65   37   38 ar
    66   37   39 1
    67   38   63 1
    68   39   64 1
    69   39   65 1
    70   40   66 1
@<TRIPOS>MOLECULE
CHEMBL446806
   76    79     0     0     0
SMALL
USER_CHARGES

@<TRIPOS>ATOM
      1 C1         -0.5481    1.8196   -0.3498 C.3       1 <0>        -0.6479
      2 S1         -0.5934    0.0071   -0.4079 S.o2      1 <0>         2.5661
      3 O1          0.0222   -0.5354    0.7523 O.2       1 <0>        -1.0056
      4 O2         -1.8783   -0.4374   -0.8212 O.2       1 <0>        -1.0044
      5 N1          0.4170   -0.4042   -1.6538 N.2       1 <0>        -1.0353
      6 C2          0.6020   -1.6567   -1.9552 C.2       1 <0>         0.5147
      7 O3         -0.0310   -2.6225   -1.2508 O.3       1 <0>        -0.7098
      8 C3          1.5030   -2.0234   -3.0663 C.ar      1 <0>        -0.0654
      9 C4          1.6980   -3.3671   -3.3946 C.ar      1 <0>        -0.0391
     10 C5          2.5372   -3.7084   -4.4301 C.ar      1 <0>        -0.1544
     11 C6          3.1965   -2.7143   -5.1554 C.ar      1 <0>        -0.0426
     12 C7          3.0069   -1.3728   -4.8337 C.ar      1 <0>        -0.2158
     13 C8          2.1594   -1.0239   -3.7968 C.ar      1 <0>         0.1799
     14 O4          1.9684    0.2832   -3.4847 O.3       1 <0>        -0.2379
     15 C9          2.5769    1.2506   -4.3427 C.3       1 <0>         0.0756
     16 C10         4.0249    1.4808   -3.9056 C.3       1 <0>        -0.1467
     17 C11         4.6763    2.5166   -4.8241 C.3       1 <0>        -0.1117
     18 C12         3.9020    3.8334   -4.7379 C.3       1 <0>        -0.1242
     19 C13         2.4540    3.6031   -5.1750 C.3       1 <0>        -0.1148
     20 C14         1.8026    2.5674   -4.2565 C.3       1 <0>        -0.1161
     21 C15         4.1007   -3.0877   -6.2700 C.ar      1 <0>         0.0078
     22 C16         4.7653   -2.0985   -6.9930 C.ar      1 <0>        -0.1133
     23 C17         5.6055   -2.4518   -8.0292 C.ar      1 <0>        -0.1028
     24 C18         5.7883   -3.7847   -8.3512 C.ar      1 <0>        -0.1344
     25 C19         5.1314   -4.7706   -7.6372 C.ar      1 <0>        -0.1022
     26 C20         4.2936   -4.4294   -6.5949 C.ar      1 <0>        -0.1118
     27 C21         6.7063   -4.1640   -9.4845 C.3       1 <0>        -0.0933
     28 C22         8.1249   -4.3629   -8.9470 C.3       1 <0>        -0.0094
     29 N2          9.0198   -4.7327  -10.0517 N.4       1 <0>        -0.5059
     30 C23        10.3818   -4.9237   -9.5356 C.3       1 <0>        -0.0497
     31 C24        11.3139   -5.3088  -10.6862 C.3       1 <0>         0.1421
     32 H1         11.3163   -4.5149  -11.4331 H         1 <0>         0.1411
     33 C25        12.7111   -5.5047  -10.1568 C.ar      1 <0>        -0.2338
     34 C26        13.1605   -6.7639   -9.8183 C.ar      1 <0>         0.1894
     35 N3         14.3829   -6.9440   -9.3544 N.ar      1 <0>        -0.4830
     36 C27        15.2236   -5.9390   -9.1942 C.ar      1 <0>         0.1805
     37 C28        14.8517   -4.6492   -9.5091 C.ar      1 <0>        -0.1947
     38 C29        13.5699   -4.4161  -10.0076 C.ar      1 <0>         0.3368
     39 N4         13.1572   -3.1300  -10.3429 N.pl3     1 <0>        -0.8073
     40 O5         10.8562   -6.5235  -11.2837 O.3       1 <0>        -0.5308
     41 H2          0.4738    2.1518   -0.1666 H         1 <0>         0.1155
     42 H3         -0.8962    2.2224   -1.3009 H         1 <0>         0.1161
     43 H4         -1.1947    2.1736    0.4532 H         1 <0>         0.1058
     44 H5          1.1899   -4.1385   -2.8350 H         1 <0>         0.1452
     45 H6          2.6864   -4.7479   -4.6822 H         1 <0>         0.1229
     46 H7          3.5180   -0.6050   -5.3956 H         1 <0>         0.1293
     47 H8          2.5610    0.8863   -5.3699 H         1 <0>         0.0628
     48 H9          4.0408    1.8451   -2.8784 H         1 <0>         0.0785
     49 H10         4.5765    0.5427   -3.9670 H         1 <0>         0.0641
     50 H11         5.7079    2.6806   -4.5128 H         1 <0>         0.0620
     51 H12         4.6604    2.1523   -5.8513 H         1 <0>         0.0563
     52 H13         3.9180    4.1977   -3.7107 H         1 <0>         0.0669
     53 H14         4.3661    4.5713   -5.3923 H         1 <0>         0.0611
     54 H15         1.9024    4.5412   -5.1136 H         1 <0>         0.0702
     55 H16         2.4381    3.2389   -6.2022 H         1 <0>         0.0599
     56 H17         0.7710    2.4033   -4.5678 H         1 <0>         0.0754
     57 H18         1.8185    2.9316   -3.2292 H         1 <0>         0.0788
     58 H19         4.6228   -1.0576   -6.7429 H         1 <0>         0.1309
     59 H20         6.1210   -1.6863   -8.5901 H         1 <0>         0.1209
     60 H21         5.2776   -5.8096   -7.8931 H         1 <0>         0.1222
     61 H22         3.7846   -5.2002   -6.0352 H         1 <0>         0.1359
     62 H23         6.3573   -5.0906   -9.9403 H         1 <0>         0.0953
     63 H24         6.7088   -3.3701  -10.2314 H         1 <0>         0.0943
     64 H25         8.4740   -3.4364   -8.4912 H         1 <0>         0.1357
     65 H26         8.1225   -5.1568   -8.2001 H         1 <0>         0.1367
     66 H27         8.6967   -5.5904  -10.4736 H         1 <0>         0.4360
     67 H28        10.7309   -3.9971   -9.0798 H         1 <0>         0.1443
     68 H29        10.3794   -5.7175   -8.7887 H         1 <0>         0.1460
     69 H30        12.5037   -7.6133   -9.9341 H         1 <0>         0.2046
     70 H31        16.2153   -6.1293   -8.8112 H         1 <0>         0.2160
     71 H32        15.5445   -3.8315   -9.3756 H         1 <0>         0.1896
     72 H33        12.2619   -2.9818  -10.6854 H         1 <0>         0.4153
     73 H34        13.7649   -2.3818  -10.2341 H         1 <0>         0.4339
     74 H35        10.8282   -7.2748  -10.6756 H         1 <0>         0.3934
     75 H36        14.6718   -7.8409   -9.1242 H         1 <0>         0.4569
     76 H37         9.0221   -3.9978  -10.7431 H         1 <0>         0.4310
@<TRIPOS>BOND
     1    1    2 1
     2    1   41 1
     3    1   42 1
     4    1   43 1
     5    2    3 2
     6    2    4 2
     7    2    5 1
     8    5    6 2
     9    6    7 1
    10    6    8 1
    11    8   13 ar
    12    8    9 ar
    13    9   10 ar
    14    9   44 1
    15   10   11 ar
    16   10   45 1
    17   11   12 ar
    18   11   21 1
    19   12   13 ar
    20   12   46 1
    21   13   14 1
    22   14   15 1
    23   15   20 1
    24   15   16 1
    25   15   47 1
    26   16   17 1
    27   16   48 1
    28   16   49 1
    29   17   18 1
    30   17   50 1
    31   17   51 1
    32   18   19 1
    33   18   52 1
    34   18   53 1
    35   19   20 1
    36   19   54 1
    37   19   55 1
    38   20   56 1
    39   20   57 1
    40   21   26 ar
    41   21   22 ar
    42   22   23 ar
    43   22   58 1
    44   23   24 ar
    45   23   59 1
    46   24   25 ar
    47   24   27 1
    48   25   26 ar
    49   25   60 1
    50   26   61 1
    51   27   28 1
    52   27   62 1
    53   27   63 1
    54   28   29 1
    55   28   64 1
    56   28   65 1
    57   29   30 1
    58   29   66 1
    59   29   76 1
    60   30   31 1
    61   30   67 1
    62   30   68 1
    63   31   32 1
    64   31   33 1
    65   31   40 1
    66   33   38 ar
    67   33   34 ar
    68   34   35 ar
    69   34   69 1
    70   35   36 ar
    71   35   75 1
    72   36   37 ar
    73   36   70 1
    74   37   38 ar
    75   37   71 1
    76   38   39 1
    77   39   72 1
    78   39   73 1
    79   40   74 1
@<TRIPOS>MOLECULE
CHEMBL287947
   80    84     0     0     0
SMALL
USER_CHARGES

@<TRIPOS>ATOM
      1 C1         16.5492   14.4540   -8.6574 C.ar      1 <0>        -0.1639
      2 C2         16.6912   13.0749   -8.6888 C.ar      1 <0>        -0.0544
      3 C3         16.5399   12.3689   -7.5054 C.ar      1 <0>        -0.2006
      4 C4         16.2545   13.0581   -6.3417 C.ar      1 <0>         0.1176
      5 N1         16.1260   14.3704   -6.3493 N.ar      1 <0>        -0.4738
      6 C5         16.2637   15.0743   -7.4561 C.ar      1 <0>         0.1226
      7 C6         16.6841   10.8689   -7.4879 C.3       1 <0>         0.1415
      8 H1         17.3141   10.5548   -8.3201 H         1 <0>         0.1342
      9 C7         15.3039   10.2222   -7.6207 C.3       1 <0>        -0.0430
     10 N2         15.4445    8.7601   -7.6037 N.4       1 <0>        -0.5055
     11 C8         14.1193    8.1392   -7.7312 C.3       1 <0>        -0.0089
     12 C9         14.2657    6.6163   -7.7135 C.3       1 <0>        -0.0997
     13 C10        12.9062    5.9794   -7.8443 C.ar      1 <0>        -0.1185
     14 C11        12.1655    5.6957   -6.7116 C.ar      1 <0>        -0.0886
     15 C12        10.9192    5.1120   -6.8279 C.ar      1 <0>        -0.1246
     16 C13        10.4101    4.8099   -8.0845 C.ar      1 <0>         0.1641
     17 C14        11.1569    5.0962   -9.2203 C.ar      1 <0>        -0.1490
     18 C15        12.4000    5.6851   -9.0971 C.ar      1 <0>        -0.0831
     19 N3          9.1502    4.2191   -8.2057 N.pl3     1 <0>        -1.0591
     20 S1          8.0663    4.8004   -9.3146 S.o2      1 <0>         2.6883
     21 O1          8.7443    4.8406  -10.5627 O.2       1 <0>        -0.9427
     22 O2          6.8613    4.0715   -9.1253 O.2       1 <0>        -0.9367
     23 C16         7.7183    6.4712   -8.8765 C.ar      1 <0>        -0.6764
     24 C17         6.7499    6.7470   -7.9276 C.ar      1 <0>        -0.0057
     25 C18         6.4722    8.0530   -7.5804 C.ar      1 <0>        -0.1197
     26 C19         7.1710    9.0971   -8.1883 C.ar      1 <0>         0.0579
     27 C20         8.1471    8.8120   -9.1444 C.ar      1 <0>        -0.1276
     28 C21         8.4186    7.5013   -9.4787 C.ar      1 <0>        -0.0111
     29 C22         6.8784   10.4989   -7.8214 C.2       1 <0>        -0.0390
     30 C23         5.9657   10.9232   -6.9101 C.2       1 <0>         0.0100
     31 N4          6.0177   12.2633   -6.8805 N.2       1 <0>        -0.4778
     32 C24         6.9185   12.6699   -7.7306 C.2       1 <0>         0.2176
     33 O3          7.4719   11.6037   -8.3244 O.3       1 <0>        -0.1949
     34 C25         7.2825   14.1075   -7.9986 C.3       1 <0>        -0.0298
     35 C26         8.4099   14.5325   -7.0556 C.3       1 <0>        -0.1141
     36 C27         8.7794   15.9920   -7.3277 C.3       1 <0>        -0.1132
     37 C28         9.9068   16.4170   -6.3847 C.3       1 <0>        -0.0896
     38 C29         9.3911   16.4628   -4.9315 C.3       1 <0>        -0.1214
     39 C30        10.1146   17.6831   -4.3099 C.3       1 <0>        -0.1274
     40 C31        10.1262   18.7035   -5.4751 C.3       1 <0>        -0.1269
     41 C32        10.3741   17.8417   -6.7303 C.3       1 <0>        -0.1217
     42 O4         17.2841   10.4624   -6.2563 O.3       1 <0>        -0.5457
     43 H2         16.6648   15.0363   -9.5596 H         1 <0>         0.1471
     44 H3         16.9140   12.5630   -9.6133 H         1 <0>         0.1410
     45 H4         16.1351   12.5155   -5.4156 H         1 <0>         0.1524
     46 H5         16.1519   16.1480   -7.4231 H         1 <0>         0.1667
     47 H6         14.6739   10.5364   -6.7885 H         1 <0>         0.1372
     48 H7         14.8462   10.5323   -8.5601 H         1 <0>         0.1447
     49 H8         16.0277    8.4693   -8.3740 H         1 <0>         0.4302
     50 H9         13.4893    8.4533   -6.8990 H         1 <0>         0.1332
     51 H10        13.6616    8.4493   -8.6706 H         1 <0>         0.1344
     52 H11        14.8957    6.3022   -8.5457 H         1 <0>         0.0985
     53 H12        14.7234    6.3062   -6.7741 H         1 <0>         0.0979
     54 H13        12.5621    5.9305   -5.7349 H         1 <0>         0.1304
     55 H14        10.3414    4.8904   -5.9428 H         1 <0>         0.1362
     56 H15        10.7641    4.8622  -10.1987 H         1 <0>         0.1625
     57 H16        12.9792    5.9120   -9.9799 H         1 <0>         0.1332
     58 H17         8.9102    3.4683   -7.6404 H         1 <0>         0.4330
     59 H18         6.2099    5.9381   -7.4580 H         1 <0>         0.1501
     60 H19         5.7156    8.2670   -6.8400 H         1 <0>         0.1440
     61 H20         8.6913    9.6154   -9.6184 H         1 <0>         0.1373
     62 H21         9.1766    7.2791  -10.2152 H         1 <0>         0.1458
     63 H22         5.3164   10.2962   -6.3172 H         1 <0>         0.1913
     64 H23         7.6143   14.2117   -9.0317 H         1 <0>         0.0967
     65 H24         6.4109   14.7402   -7.8313 H         1 <0>         0.1132
     66 H25         8.0781   14.4282   -6.0225 H         1 <0>         0.0750
     67 H26         9.2815   13.8997   -7.2229 H         1 <0>         0.0628
     68 H27         9.1112   16.0962   -8.3608 H         1 <0>         0.0659
     69 H28         7.9078   16.6248   -7.1604 H         1 <0>         0.0715
     70 H29        10.7417   15.7207   -6.4636 H         1 <0>         0.0665
     71 H30         8.3112   16.6101   -4.9144 H         1 <0>         0.0692
     72 H31         9.6608   15.5490   -4.4020 H         1 <0>         0.0608
     73 H32         9.5540   18.0731   -3.4604 H         1 <0>         0.0667
     74 H33        11.1310   17.4210   -4.0159 H         1 <0>         0.0647
     75 H34         9.1650   19.2128   -5.5458 H         1 <0>         0.0664
     76 H35        10.9323   19.4250   -5.3424 H         1 <0>         0.0647
     77 H36        11.4360   17.8370   -6.9762 H         1 <0>         0.0610
     78 H37         9.7978   18.2304   -7.5699 H         1 <0>         0.0658
     79 H38        16.7765   10.7094   -5.4712 H         1 <0>         0.3898
     80 H39        15.8681    8.4730   -6.7341 H         1 <0>         0.4328
@<TRIPOS>BOND
     1    1    6 ar
     2    1    2 ar
     3    1   43 1
     4    2    3 ar
     5    2   44 1
     6    3    4 ar
     7    3    7 1
     8    4    5 ar
     9    4   45 1
    10    5    6 ar
    11    6   46 1
    12    7    8 1
    13    7    9 1
    14    7   42 1
    15    9   10 1
    16    9   47 1
    17    9   48 1
    18   10   11 1
    19   10   49 1
    20   10   80 1
    21   11   12 1
    22   11   50 1
    23   11   51 1
    24   12   13 1
    25   12   52 1
    26   12   53 1
    27   13   18 ar
    28   13   14 ar
    29   14   15 ar
    30   14   54 1
    31   15   16 ar
    32   15   55 1
    33   16   17 ar
    34   16   19 1
    35   17   18 ar
    36   17   56 1
    37   18   57 1
    38   19   20 1
    39   19   58 1
    40   20   21 2
    41   20   22 2
    42   20   23 1
    43   23   28 ar
    44   23   24 ar
    45   24   25 ar
    46   24   59 1
    47   25   26 ar
    48   25   60 1
    49   26   27 ar
    50   26   29 1
    51   27   28 ar
    52   27   61 1
    53   28   62 1
    54   29   33 1
    55   29   30 2
    56   30   31 1
    57   30   63 1
    58   31   32 2
    59   32   33 1
    60   32   34 1
    61   34   35 1
    62   34   64 1
    63   34   65 1
    64   35   36 1
    65   35   66 1
    66   35   67 1
    67   36   37 1
    68   36   68 1
    69   36   69 1
    70   37   41 1
    71   37   38 1
    72   37   70 1
    73   38   39 1
    74   38   71 1
    75   38   72 1
    76   39   40 1
    77   39   73 1
    78   39   74 1
    79   40   41 1
    80   40   75 1
    81   40   76 1
    82   41   77 1
    83   41   78 1
    84   42   79 1
@<TRIPOS>MOLECULE
CHEMBL287947
   79    83     0     0     0
SMALL
USER_CHARGES

@<TRIPOS>ATOM
      1 C1         -0.0167    1.3776    0.0096 C.ar      1 <0>        -0.1653
      2 C2          1.1849    2.0698    0.0019 C.ar      1 <0>        -0.0551
      3 C3          2.3651    1.3426   -0.0133 C.ar      1 <0>        -0.1953
      4 C4          2.3054   -0.0383   -0.0202 C.ar      1 <0>         0.1171
      5 N1          1.1443   -0.6632   -0.0129 N.ar      1 <0>        -0.4762
      6 C5          0.0021   -0.0041    0.0020 C.ar      1 <0>         0.1183
      7 C6          3.6964    2.0488   -0.0227 C.3       1 <0>         0.1403
      8 H1          3.5852    3.0397    0.4177 H         1 <0>         0.1328
      9 C7          4.1918    2.1840   -1.4640 C.3       1 <0>        -0.0426
     10 N2          5.4895    2.8724   -1.4731 N.4       1 <0>        -0.5054
     11 C8          5.9652    3.0022   -2.8569 C.3       1 <0>        -0.0113
     12 C9          7.3168    3.7191   -2.8665 C.3       1 <0>        -0.0712
     13 C10         7.8047    3.8523   -4.2861 C.ar      1 <0>        -0.2353
     14 C11         8.5838    2.8554   -4.8441 C.ar      1 <0>        -0.0637
     15 C12         9.0327    2.9742   -6.1447 C.ar      1 <0>        -0.1805
     16 C13         8.7007    4.0968   -6.8926 C.ar      1 <0>         0.2962
     17 C14         7.9179    5.0963   -6.3289 C.ar      1 <0>        -0.2647
     18 C15         7.4677    4.9685   -5.0296 C.ar      1 <0>        -0.0476
     19 N3          9.1534    4.2204   -8.2081 N.2       1 <0>        -1.0816
     20 S1          8.7565    5.5594   -9.0980 S.o2      1 <0>         2.6079
     21 O1          7.3500    5.5136   -9.2953 O.2       1 <0>        -1.0252
     22 O2          9.4036    6.6637   -8.4807 O.2       1 <0>        -1.0227
     23 C16         9.4944    5.3669  -10.6864 C.ar      1 <0>        -0.6118
     24 C17        10.7744    5.8407  -10.9131 C.ar      1 <0>        -0.0176
     25 C18        11.3578    5.6935  -12.1546 C.ar      1 <0>        -0.1198
     26 C19        10.6540    5.0647  -13.1828 C.ar      1 <0>         0.0233
     27 C20         9.3633    4.5886  -12.9473 C.ar      1 <0>        -0.1248
     28 C21         8.7935    4.7375  -11.6997 C.ar      1 <0>        -0.0194
     29 C22        11.2728    4.9040  -14.5157 C.2       1 <0>        -0.0093
     30 C23        12.5144    5.3100  -14.8857 C.2       1 <0>        -0.0129
     31 N4         12.6825    4.9730  -16.1731 N.2       1 <0>        -0.4786
     32 C24        11.6015    4.3823  -16.5996 C.2       1 <0>         0.1987
     33 O3         10.7135    4.3197  -15.5981 O.3       1 <0>        -0.1931
     34 C25        11.3869    3.8509  -17.9934 C.3       1 <0>        -0.0239
     35 C26        11.8516    2.3948  -18.0611 C.3       1 <0>        -0.1179
     36 C27        11.6337    1.8552  -19.4762 C.3       1 <0>        -0.1106
     37 C28        12.0985    0.3991  -19.5439 C.3       1 <0>        -0.0932
     38 C29        13.6312    0.3256  -19.3849 C.3       1 <0>        -0.1216
     39 C30        14.0585   -0.8123  -20.3450 C.3       1 <0>        -0.1273
     40 C31        13.1159   -0.6089  -21.5571 C.3       1 <0>        -0.1258
     41 C32        11.7709   -0.1951  -20.9250 C.3       1 <0>        -0.1220
     42 O4          4.6418    1.2932    0.7371 O.3       1 <0>        -0.5468
     43 H2         -0.9552    1.9117    0.0259 H         1 <0>         0.1455
     44 H3          1.2009    3.1496    0.0072 H         1 <0>         0.1413
     45 H4          3.2203   -0.6121   -0.0320 H         1 <0>         0.1538
     46 H5         -0.9294   -0.5505    0.0083 H         1 <0>         0.1651
     47 H6          4.3030    1.1932   -1.9044 H         1 <0>         0.1361
     48 H7          3.4707    2.7604   -2.0435 H         1 <0>         0.1429
     49 H8          5.3866    3.7896   -1.0655 H         1 <0>         0.4264
     50 H9          6.0764    2.0113   -3.2973 H         1 <0>         0.1307
     51 H10         5.2440    3.5785   -3.4365 H         1 <0>         0.1304
     52 H11         7.2056    4.7100   -2.4261 H         1 <0>         0.0797
     53 H12         8.0379    3.1428   -2.2869 H         1 <0>         0.0810
     54 H13         8.8419    1.9830   -4.2620 H         1 <0>         0.1048
     55 H14         9.6415    2.1954   -6.5798 H         1 <0>         0.1170
     56 H15         7.6583    5.9706   -6.9075 H         1 <0>         0.1015
     57 H16         6.8554    5.7432   -4.5922 H         1 <0>         0.1018
     58 H17        11.3179    6.3271  -10.1166 H         1 <0>         0.1456
     59 H18        12.3568    6.0644  -12.3305 H         1 <0>         0.1360
     60 H19         8.8135    4.1011  -13.7387 H         1 <0>         0.1331
     61 H20         7.7965    4.3657  -11.5148 H         1 <0>         0.1424
     62 H21        13.2353    5.8127  -14.2580 H         1 <0>         0.1889
     63 H22        10.3276    3.9063  -18.2443 H         1 <0>         0.0940
     64 H23        11.9599    4.4485  -18.7023 H         1 <0>         0.1077
     65 H24        12.9109    2.3394  -17.8103 H         1 <0>         0.0740
     66 H25        11.2786    1.7971  -17.3522 H         1 <0>         0.0676
     67 H26        10.5745    1.9106  -19.7271 H         1 <0>         0.0657
     68 H27        12.2067    2.4528  -20.1851 H         1 <0>         0.0679
     69 H28        11.6128   -0.1844  -18.7617 H         1 <0>         0.0713
     70 H29        14.0911    1.2681  -19.6817 H         1 <0>         0.0681
     71 H30        13.8966    0.0774  -18.3572 H         1 <0>         0.0633
     72 H31        15.1007   -0.6958  -20.6423 H         1 <0>         0.0646
     73 H32        13.8932   -1.7872  -19.8864 H         1 <0>         0.0651
     74 H33        13.4927    0.1828  -22.2047 H         1 <0>         0.0644
     75 H34        13.0053   -1.5389  -22.1146 H         1 <0>         0.0627
     76 H35        11.1269   -1.0673  -20.8130 H         1 <0>         0.0620
     77 H36        11.2808    0.5540  -21.5470 H         1 <0>         0.0648
     78 H37         4.7910    0.3986    0.4015 H         1 <0>         0.3893
     79 H38         6.1570    2.3389   -0.9367 H         1 <0>         0.4292
@<TRIPOS>BOND
     1    1    6 ar
     2    1    2 ar
     3    1   43 1
     4    2    3 ar
     5    2   44 1
     6    3    4 ar
     7    3    7 1
     8    4    5 ar
     9    4   45 1
    10    5    6 ar
    11    6   46 1
    12    7    8 1
    13    7    9 1
    14    7   42 1
    15    9   10 1
    16    9   47 1
    17    9   48 1
    18   10   11 1
    19   10   49 1
    20   10   79 1
    21   11   12 1
    22   11   50 1
    23   11   51 1
    24   12   13 1
    25   12   52 1
    26   12   53 1
    27   13   18 ar
    28   13   14 ar
    29   14   15 ar
    30   14   54 1
    31   15   16 ar
    32   15   55 1
    33   16   17 ar
    34   16   19 1
    35   17   18 ar
    36   17   56 1
    37   18   57 1
    38   19   20 1
    39   20   21 2
    40   20   22 2
    41   20   23 1
    42   23   28 ar
    43   23   24 ar
    44   24   25 ar
    45   24   58 1
    46   25   26 ar
    47   25   59 1
    48   26   27 ar
    49   26   29 1
    50   27   28 ar
    51   27   60 1
    52   28   61 1
    53   29   33 1
    54   29   30 2
    55   30   31 1
    56   30   62 1
    57   31   32 2
    58   32   33 1
    59   32   34 1
    60   34   35 1
    61   34   63 1
    62   34   64 1
    63   35   36 1
    64   35   65 1
    65   35   66 1
    66   36   37 1
    67   36   67 1
    68   36   68 1
    69   37   41 1
    70   37   38 1
    71   37   69 1
    72   38   39 1
    73   38   70 1
    74   38   71 1
    75   39   40 1
    76   39   72 1
    77   39   73 1
    78   40   41 1
    79   40   74 1
    80   40   75 1
    81   41   76 1
    82   41   77 1
    83   42   78 1
@<TRIPOS>MOLECULE
CHEMBL363329
   63    65     0     0     0
SMALL
USER_CHARGES

@<TRIPOS>ATOM
      1 C1          0.0018    1.4009   -0.1524 C.ar      1 <0>        -0.1201
      2 C2          1.1904    2.1067   -0.1514 C.ar      1 <0>        -0.1172
      3 C3          2.3959    1.4303   -0.1556 C.ar      1 <0>        -0.1167
      4 C4          2.4129    0.0481   -0.1603 C.ar      1 <0>        -0.0884
      5 C5          1.2243   -0.6577   -0.1604 C.ar      1 <0>        -0.1163
      6 C6          0.0188    0.0187   -0.1577 C.ar      1 <0>        -0.1168
      7 C7          3.7271   -0.6893   -0.1659 C.3       1 <0>        -0.0754
      8 C8          4.1752   -0.9438    1.2748 C.3       1 <0>        -0.1146
      9 C9          5.5095   -1.6925    1.2691 C.3       1 <0>         0.0580
     10 O1          5.9281   -1.9301    2.6146 O.3       1 <0>        -0.3096
     11 C10         7.1034   -2.5900    2.7878 C.ar      1 <0>         0.1517
     12 C11         7.8417   -2.9953    1.6853 C.ar      1 <0>        -0.2079
     13 C12         9.0364   -3.6654    1.8639 C.ar      1 <0>        -0.0653
     14 C13         9.4963   -3.9328    3.1401 C.ar      1 <0>        -0.1521
     15 C14         8.7622   -3.5304    4.2405 C.ar      1 <0>        -0.0666
     16 C15         7.5699   -2.8544    4.0673 C.ar      1 <0>        -0.1502
     17 C16        10.7997   -4.6645    3.3321 C.3       1 <0>        -0.0941
     18 C17        11.9458   -3.6537    3.4066 C.3       1 <0>        -0.0076
     19 N1         13.2163   -4.3670    3.5937 N.4       1 <0>        -0.5059
     20 C18        14.3168   -3.3965    3.6652 C.3       1 <0>        -0.0420
     21 C19        15.6401   -4.1394    3.8601 C.3       1 <0>         0.1374
     22 H1         15.8049   -4.8144    3.0203 H         1 <0>         0.1336
     23 C20        16.7690   -3.1438    3.9335 C.ar      1 <0>        -0.1343
     24 C21        17.0846   -2.5467    5.1401 C.ar      1 <0>        -0.1040
     25 C22        18.1189   -1.6323    5.2135 C.ar      1 <0>        -0.1194
     26 C23        18.8425   -1.3117    4.0763 C.ar      1 <0>         0.1020
     27 C24        18.5254   -1.9132    2.8606 C.ar      1 <0>         0.1237
     28 C25        17.4899   -2.8341    2.7958 C.ar      1 <0>        -0.0918
     29 N2         19.2538   -1.5929    1.7072 N.am      1 <0>        -0.6779
     30 C26        19.4920   -2.5381    0.7764 C.2       1 <0>         0.4954
     31 O2         19.0081   -3.6438    0.8973 O.2       1 <0>        -0.5354
     32 O3         19.8595   -0.4119    4.1468 O.3       1 <0>        -0.4925
     33 O4         15.5894   -4.8924    5.0736 O.3       1 <0>        -0.5463
     34 H2         -0.9400    1.9294   -0.1447 H         1 <0>         0.1236
     35 H3          1.1772    3.1866   -0.1477 H         1 <0>         0.1235
     36 H4          3.3245    1.9817   -0.1555 H         1 <0>         0.1207
     37 H5          1.2376   -1.7377   -0.1645 H         1 <0>         0.1213
     38 H6         -0.9098   -0.5327   -0.1582 H         1 <0>         0.1238
     39 H7          3.6073   -1.6415   -0.6826 H         1 <0>         0.0763
     40 H8          4.4783   -0.0892   -0.6794 H         1 <0>         0.0758
     41 H9          4.2951    0.0084    1.7915 H         1 <0>         0.0780
     42 H10         3.4241   -1.5439    1.7883 H         1 <0>         0.0786
     43 H11         5.3897   -2.6447    0.7523 H         1 <0>         0.0668
     44 H12         6.2607   -1.0924    0.7556 H         1 <0>         0.0658
     45 H13         7.4825   -2.7873    0.6882 H         1 <0>         0.1340
     46 H14         9.6114   -3.9811    1.0060 H         1 <0>         0.1268
     47 H15         9.1234   -3.7407    5.2364 H         1 <0>         0.1313
     48 H16         6.9990   -2.5364    4.9271 H         1 <0>         0.1375
     49 H17        10.7610   -5.2389    4.2577 H         1 <0>         0.0954
     50 H18        10.9645   -5.3395    2.4923 H         1 <0>         0.0944
     51 H19        11.9845   -3.0794    2.4810 H         1 <0>         0.1324
     52 H20        11.7810   -2.9787    4.2464 H         1 <0>         0.1329
     53 H21        13.1806   -4.8987    4.4505 H         1 <0>         0.4319
     54 H22        14.3555   -2.8222    2.7396 H         1 <0>         0.1439
     55 H23        14.1520   -2.7215    4.5050 H         1 <0>         0.1377
     56 H24        16.5214   -2.7951    6.0275 H         1 <0>         0.1289
     57 H25        18.3626   -1.1675    6.1574 H         1 <0>         0.1423
     58 H26        17.2443   -3.3055    1.8557 H         1 <0>         0.1485
     59 H27        19.5867   -0.6909    1.5787 H         1 <0>         0.4225
     60 H28        20.1136   -2.3111   -0.0770 H         1 <0>         0.1549
     61 H29        20.7204   -0.8059    4.3433 H         1 <0>         0.3999
     62 H30        15.4448   -4.3548    5.8643 H         1 <0>         0.3877
     63 H31        13.3689   -4.9918    2.8163 H         1 <0>         0.4296
@<TRIPOS>BOND
     1    1    6 ar
     2    1    2 ar
     3    1   34 1
     4    2    3 ar
     5    2   35 1
     6    3    4 ar
     7    3   36 1
     8    4    5 ar
     9    4    7 1
    10    5    6 ar
    11    5   37 1
    12    6   38 1
    13    7    8 1
    14    7   39 1
    15    7   40 1
    16    8    9 1
    17    8   41 1
    18    8   42 1
    19    9   10 1
    20    9   43 1
    21    9   44 1
    22   10   11 1
    23   11   16 ar
    24   11   12 ar
    25   12   13 ar
    26   12   45 1
    27   13   14 ar
    28   13   46 1
    29   14   15 ar
    30   14   17 1
    31   15   16 ar
    32   15   47 1
    33   16   48 1
    34   17   18 1
    35   17   49 1
    36   17   50 1
    37   18   19 1
    38   18   51 1
    39   18   52 1
    40   19   20 1
    41   19   53 1
    42   19   63 1
    43   20   21 1
    44   20   54 1
    45   20   55 1
    46   21   22 1
    47   21   23 1
    48   21   33 1
    49   23   28 ar
    50   23   24 ar
    51   24   25 ar
    52   24   56 1
    53   25   26 ar
    54   25   57 1
    55   26   27 ar
    56   26   32 1
    57   27   28 ar
    58   27   29 1
    59   28   58 1
    60   29   30 am
    61   29   59 1
    62   30   31 2
    63   30   60 1
    64   32   61 1
    65   33   62 1
@<TRIPOS>MOLECULE
CHEMBL101606
   70    73     0     0     0
SMALL
USER_CHARGES

@<TRIPOS>ATOM
      1 C1          0.8801    2.3325   -1.5979 C.3       1 <0>        -0.6345
      2 S1          1.3209    0.7769   -2.4204 S.o2      1 <0>         2.5259
      3 O1          0.5443    0.6090   -3.5985 O.2       1 <0>        -1.0358
      4 O2          2.7333    0.6253   -2.4561 O.2       1 <0>        -1.0275
      5 N1          0.7941   -0.4112   -1.3941 N.2       1 <0>        -1.0761
      6 C2          0.8985   -1.7559   -1.7681 C.ar      1 <0>         0.2695
      7 C3          1.5663   -2.1040   -2.9332 C.ar      1 <0>        -0.2340
      8 C4          1.6684   -3.4327   -3.3001 C.ar      1 <0>        -0.0973
      9 C5          1.1063   -4.4171   -2.5086 C.ar      1 <0>        -0.2020
     10 C6          0.4391   -4.0776   -1.3459 C.ar      1 <0>        -0.1040
     11 C7          0.3369   -2.7489   -0.9684 C.ar      1 <0>         0.0514
     12 O3         -0.3146   -2.4140    0.1776 O.3       1 <0>        -0.4809
     13 C8          2.3938   -3.8092   -4.5662 C.3       1 <0>         0.1373
     14 H1          3.1188   -3.0339   -4.8139 H         1 <0>         0.1250
     15 C9          1.3861   -3.9490   -5.7090 C.3       1 <0>        -0.0420
     16 N2          2.0932   -4.3161   -6.9432 N.4       1 <0>        -0.5067
     17 C10         1.1257   -4.4503   -8.0404 C.3       1 <0>        -0.0076
     18 C11         1.8621   -4.8326   -9.3259 C.3       1 <0>        -0.1132
     19 C12         2.7909   -3.6892   -9.7406 C.3       1 <0>        -0.1461
     20 C13         3.5521   -4.0893  -11.0084 C.3       1 <0>         0.1173
     21 N3          2.5812   -4.4820  -12.0389 N.pl3     1 <0>        -1.0012
     22 C14         1.5831   -5.5101  -11.7139 C.3       1 <0>         0.1151
     23 C15         0.8440   -5.0941  -10.4382 C.3       1 <0>        -0.1238
     24 S2          2.6108   -3.7787  -13.5378 S.o2      1 <0>         2.6958
     25 O4          1.3029   -3.9153  -14.0764 O.2       1 <0>        -0.9524
     26 O5          3.2421   -2.5153  -13.3813 O.2       1 <0>        -0.9531
     27 C16         3.6759   -4.7521  -14.5490 C.ar      1 <0>        -0.7114
     28 C17         5.0270   -4.4633  -14.6061 C.ar      1 <0>         0.0057
     29 C18         5.8645   -5.2245  -15.3978 C.ar      1 <0>        -0.1520
     30 C19         5.3486   -6.2809  -16.1365 C.ar      1 <0>         0.2487
     31 C20         3.9916   -6.5687  -16.0767 C.ar      1 <0>        -0.1732
     32 C21         3.1600   -5.8069  -15.2794 C.ar      1 <0>         0.0116
     33 N4          6.1957   -7.0549  -16.9412 N.pl3     1 <0>        -0.3431
     34 C22         5.8192   -8.0954  -17.7040 C.2       1 <0>         0.0649
     35 C23         6.9529   -8.5776  -18.3328 C.2       1 <0>        -0.2476
     36 C24         8.0373   -7.7731  -17.9100 C.2       1 <0>         0.1069
     37 N5          7.5747   -6.8705  -17.0901 N.2       1 <0>        -0.3170
     38 C25         7.0188   -9.7126  -19.2647 C.2       1 <0>         0.5488
     39 O6          6.0015  -10.3300  -19.5497 O.co2     1 <0>        -0.6905
     40 O7          8.0908  -10.0399  -19.7553 O.co2     1 <0>        -0.6844
     41 O8          3.0724   -5.0522   -4.3748 O.3       1 <0>        -0.5528
     42 H2         -0.1995    2.3739   -1.4535 H         1 <0>         0.1175
     43 H3          1.3785    2.3856   -0.6300 H         1 <0>         0.1187
     44 H4          1.1965    3.1727   -2.2161 H         1 <0>         0.1050
     45 H5          2.0060   -1.3370   -3.5534 H         1 <0>         0.1084
     46 H6          1.1882   -5.4540   -2.7994 H         1 <0>         0.1042
     47 H7          0.0011   -4.8491   -0.7300 H         1 <0>         0.1166
     48 H8         -1.2719   -2.3255    0.0743 H         1 <0>         0.3689
     49 H9          0.6611   -4.7244   -5.4613 H         1 <0>         0.1372
     50 H10         0.8685   -3.0010   -5.8550 H         1 <0>         0.1460
     51 H11         2.7643   -3.5984   -7.1725 H         1 <0>         0.4260
     52 H12         0.4007   -5.2257   -7.7927 H         1 <0>         0.1339
     53 H13         0.6081   -3.5022   -8.1864 H         1 <0>         0.1337
     54 H14         2.4506   -5.7337   -9.1530 H         1 <0>         0.0993
     55 H15         2.2007   -2.7943   -9.9378 H         1 <0>         0.0880
     56 H16         3.5008   -3.4879   -8.9383 H         1 <0>         0.0742
     57 H17         4.1401   -3.2431  -11.3639 H         1 <0>         0.1041
     58 H18         4.2117   -4.9288  -10.7890 H         1 <0>         0.0775
     59 H19         0.8720   -5.6015  -12.5349 H         1 <0>         0.1044
     60 H20         2.0822   -6.4656  -11.5520 H         1 <0>         0.0772
     61 H21         0.1682   -5.8928  -10.1324 H         1 <0>         0.0891
     62 H22         0.2721   -4.1860  -10.6288 H         1 <0>         0.0823
     63 H23         5.4277   -3.6414  -14.0313 H         1 <0>         0.1438
     64 H24         6.9195   -4.9980  -15.4426 H         1 <0>         0.1479
     65 H25         3.5873   -7.3896  -16.6504 H         1 <0>         0.1439
     66 H26         2.1050   -6.0326  -15.2296 H         1 <0>         0.1460
     67 H27         4.8167   -8.4837  -17.8066 H         1 <0>         0.1833
     68 H28         9.0669   -7.8840  -18.2164 H         1 <0>         0.1969
     69 H29         2.4876   -5.7891   -4.1510 H         1 <0>         0.3836
     70 H30         2.5723   -5.1937   -6.8080 H         1 <0>         0.4284
@<TRIPOS>BOND
     1    1    2 1
     2    1   42 1
     3    1   43 1
     4    1   44 1
     5    2    3 2
     6    2    4 2
     7    2    5 1
     8    5    6 1
     9    6   11 ar
    10    6    7 ar
    11    7    8 ar
    12    7   45 1
    13    8    9 ar
    14    8   13 1
    15    9   10 ar
    16    9   46 1
    17   10   11 ar
    18   10   47 1
    19   11   12 1
    20   12   48 1
    21   13   14 1
    22   13   15 1
    23   13   41 1
    24   15   16 1
    25   15   49 1
    26   15   50 1
    27   16   17 1
    28   16   51 1
    29   16   70 1
    30   17   18 1
    31   17   52 1
    32   17   53 1
    33   18   23 1
    34   18   19 1
    35   18   54 1
    36   19   20 1
    37   19   55 1
    38   19   56 1
    39   20   21 1
    40   20   57 1
    41   20   58 1
    42   21   22 1
    43   21   24 1
    44   22   23 1
    45   22   59 1
    46   22   60 1
    47   23   61 1
    48   23   62 1
    49   24   25 2
    50   24   26 2
    51   24   27 1
    52   27   32 ar
    53   27   28 ar
    54   28   29 ar
    55   28   63 1
    56   29   30 ar
    57   29   64 1
    58   30   31 ar
    59   30   33 1
    60   31   32 ar
    61   31   65 1
    62   32   66 1
    63   33   37 1
    64   33   34 1
    65   34   35 2
    66   34   67 1
    67   35   36 1
    68   35   38 1
    69   36   37 2
    70   36   68 1
    71   38   39 2
    72   38   40 1
    73   41   69 1
@<TRIPOS>MOLECULE
CHEMBL101606
   71    74     0     0     0
SMALL
USER_CHARGES

@<TRIPOS>ATOM
      1 C1          0.0379    1.7008    0.2010 C.3       1 <0>        -0.6694
      2 S1          0.0421   -0.1069    0.0496 S.o2      1 <0>         2.6057
      3 O1          0.8959   -0.6783    1.0313 O.2       1 <0>        -0.9490
      4 O2         -1.2841   -0.5865   -0.1248 O.2       1 <0>        -0.9362
      5 N1          0.7947   -0.4113   -1.3938 N.pl3     1 <0>        -1.0511
      6 C2          2.1123    0.0139   -1.5994 C.ar      1 <0>         0.1372
      7 C3          3.0200   -0.0023   -0.5504 C.ar      1 <0>        -0.1476
      8 C4          4.3207    0.4176   -0.7561 C.ar      1 <0>        -0.1188
      9 C5          4.7204    0.8542   -2.0055 C.ar      1 <0>        -0.1035
     10 C6          3.8211    0.8730   -3.0558 C.ar      1 <0>        -0.1129
     11 C7          2.5173    0.4490   -2.8594 C.ar      1 <0>         0.1084
     12 O3          1.6331    0.4621   -3.8928 O.3       1 <0>        -0.4876
     13 C8          5.3055    0.4000    0.3845 C.3       1 <0>         0.1330
     14 H1          4.9963   -0.3426    1.1201 H         1 <0>         0.1379
     15 C9          5.3497    1.7810    1.0415 C.3       1 <0>        -0.0446
     16 N2          6.3096    1.7638    2.1534 N.4       1 <0>        -0.5074
     17 C10         6.3521    3.0898    2.7842 C.3       1 <0>        -0.0071
     18 C11         7.3519    3.0719    3.9422 C.3       1 <0>        -0.1146
     19 C12         6.8535    2.1193    5.0314 C.3       1 <0>        -0.1444
     20 C13         7.8737    2.0775    6.1735 C.3       1 <0>         0.1162
     21 N3          8.1199    3.4494    6.6381 N.pl3     1 <0>        -1.0021
     22 C14         8.5161    4.4676    5.6557 C.3       1 <0>         0.1139
     23 C15         7.4888    4.4826    4.5195 C.3       1 <0>        -0.1234
     24 S2          7.9534    3.8409    8.2386 S.o2      1 <0>         2.6960
     25 O4          7.6994    5.2380    8.2906 O.2       1 <0>        -0.9515
     26 O5          7.0661    2.8838    8.8006 O.2       1 <0>        -0.9535
     27 C16         9.5201    3.5850    9.0032 C.ar      1 <0>        -0.7141
     28 C17         9.8311    2.3504    9.5429 C.ar      1 <0>         0.0054
     29 C18        11.0583    2.1468   10.1429 C.ar      1 <0>        -0.1526
     30 C19        11.9804    3.1831   10.2034 C.ar      1 <0>         0.2527
     31 C20        11.6654    4.4215    9.6602 C.ar      1 <0>        -0.1735
     32 C21        10.4383    4.6176    9.0572 C.ar      1 <0>         0.0119
     33 N4         13.2263    2.9798   10.8120 N.pl3     1 <0>        -0.3446
     34 C22        14.1978    3.8999   10.9383 C.2       1 <0>         0.0632
     35 C23        15.2554    3.2960   11.5941 C.2       1 <0>        -0.2444
     36 C24        14.8726    1.9598   11.8585 C.2       1 <0>         0.1093
     37 N5         13.6658    1.7864   11.3956 N.2       1 <0>        -0.3176
     38 C25        16.5362    3.9241   11.9489 C.2       1 <0>         0.5477
     39 O6         16.7439    5.0951   11.6610 O.co2     1 <0>        -0.6894
     40 O7         17.3946    3.2760   12.5322 O.co2     1 <0>        -0.6825
     41 O8          6.6034    0.0669   -0.1119 O.3       1 <0>        -0.5436
     42 H2          1.0641    2.0682    0.1960 H         1 <0>         0.1254
     43 H3         -0.5074    2.1344   -0.6374 H         1 <0>         0.1352
     44 H4         -0.4456    1.9860    1.1353 H         1 <0>         0.1396
     45 H5          0.3224   -0.8842   -2.0968 H         1 <0>         0.4367
     46 H6          2.7103   -0.3425    0.4267 H         1 <0>         0.1711
     47 H7          5.7376    1.1817   -2.1616 H         1 <0>         0.1323
     48 H8          4.1366    1.2147   -4.0306 H         1 <0>         0.1446
     49 H9          1.1441    1.2916   -3.9815 H         1 <0>         0.3979
     50 H10         5.6589    2.5236    0.3060 H         1 <0>         0.1390
     51 H11         4.3597    2.0351    1.4202 H         1 <0>         0.1450
     52 H12         6.0234    1.0764    2.8343 H         1 <0>         0.4292
     53 H13         6.6613    3.8324    2.0487 H         1 <0>         0.1353
     54 H14         5.3620    3.3438    3.1629 H         1 <0>         0.1342
     55 H15         8.3220    2.7324    3.5792 H         1 <0>         0.1012
     56 H16         5.8951    2.4719    5.4124 H         1 <0>         0.0875
     57 H17         6.7339    1.1197    4.6136 H         1 <0>         0.0720
     58 H18         7.4788    1.4790    6.9944 H         1 <0>         0.1053
     59 H19         8.8056    1.6403    5.8151 H         1 <0>         0.0780
     60 H20         8.5452    5.4461    6.1351 H         1 <0>         0.1064
     61 H21         9.5005    4.2253    5.2552 H         1 <0>         0.0782
     62 H22         7.8213    5.1651    3.7373 H         1 <0>         0.0893
     63 H23         6.5244    4.8130    4.9053 H         1 <0>         0.0822
     64 H24         9.1134    1.5447    9.4955 H         1 <0>         0.1429
     65 H25        11.3004    1.1826   10.5648 H         1 <0>         0.1484
     66 H26        12.3804    5.2296    9.7061 H         1 <0>         0.1446
     67 H27        10.1941    5.5795    8.6312 H         1 <0>         0.1455
     68 H28        14.1599    4.9219   10.5913 H         1 <0>         0.1837
     69 H29        15.4728    1.2153   12.3604 H         1 <0>         0.1979
     70 H30         6.9428    0.6864   -0.7724 H         1 <0>         0.3879
     71 H31         7.2261    1.5287    1.8028 H         1 <0>         0.4327
@<TRIPOS>BOND
     1    1    2 1
     2    1   42 1
     3    1   43 1
     4    1   44 1
     5    2    3 2
     6    2    4 2
     7    2    5 1
     8    5    6 1
     9    5   45 1
    10    6   11 ar
    11    6    7 ar
    12    7    8 ar
    13    7   46 1
    14    8    9 ar
    15    8   13 1
    16    9   10 ar
    17    9   47 1
    18   10   11 ar
    19   10   48 1
    20   11   12 1
    21   12   49 1
    22   13   14 1
    23   13   15 1
    24   13   41 1
    25   15   16 1
    26   15   50 1
    27   15   51 1
    28   16   17 1
    29   16   52 1
    30   16   71 1
    31   17   18 1
    32   17   53 1
    33   17   54 1
    34   18   23 1
    35   18   19 1
    36   18   55 1
    37   19   20 1
    38   19   56 1
    39   19   57 1
    40   20   21 1
    41   20   58 1
    42   20   59 1
    43   21   22 1
    44   21   24 1
    45   22   23 1
    46   22   60 1
    47   22   61 1
    48   23   62 1
    49   23   63 1
    50   24   25 2
    51   24   26 2
    52   24   27 1
    53   27   32 ar
    54   27   28 ar
    55   28   29 ar
    56   28   64 1
    57   29   30 ar
    58   29   65 1
    59   30   31 ar
    60   30   33 1
    61   31   32 ar
    62   31   66 1
    63   32   67 1
    64   33   37 1
    65   33   34 1
    66   34   35 2
    67   34   68 1
    68   35   36 1
    69   35   38 1
    70   36   37 2
    71   36   69 1
    72   38   39 2
    73   38   40 1
    74   41   70 1
@<TRIPOS>MOLECULE
CHEMBL101521
   72    74     0     0     0
SMALL
USER_CHARGES

@<TRIPOS>ATOM
      1 C1          1.0391    2.3532   -1.5912 C.3       1 <0>        -0.6348
      2 S1          1.4798    0.7904   -2.3999 S.o2      1 <0>         2.5257
      3 O1          0.7284    0.6290   -3.5952 O.2       1 <0>        -1.0339
      4 O2          2.8907    0.6217   -2.4029 O.2       1 <0>        -1.0269
      5 N1          0.9153   -0.3888   -1.3835 N.2       1 <0>        -1.0771
      6 C2          0.9991   -1.7347   -1.7582 C.ar      1 <0>         0.2699
      7 C3          1.6551   -2.0916   -2.9273 C.ar      1 <0>        -0.2331
      8 C4          1.7369   -3.4215   -3.2949 C.ar      1 <0>        -0.0952
      9 C5          1.1662   -4.3983   -2.5002 C.ar      1 <0>        -0.2029
     10 C6          0.5107   -4.0500   -1.3335 C.ar      1 <0>        -0.1039
     11 C7          0.4289   -2.7201   -0.9553 C.ar      1 <0>         0.0491
     12 O3         -0.2111   -2.3765    0.1947 O.3       1 <0>        -0.4814
     13 C8          2.4495   -3.8077   -4.5655 C.3       1 <0>         0.1368
     14 H1          3.1834   -3.0422   -4.8174 H         1 <0>         0.1252
     15 C9          1.4331   -3.9336   -5.7021 C.3       1 <0>        -0.0416
     16 N2          2.1277   -4.3100   -6.9406 N.4       1 <0>        -0.5058
     17 C10         1.1519   -4.4309   -8.0320 C.3       1 <0>        -0.0069
     18 C11         1.8753   -4.8229   -9.3219 C.3       1 <0>        -0.1095
     19 C12         2.8171   -3.6922   -9.7421 C.3       1 <0>        -0.1497
     20 C13         3.5651   -4.1024  -11.0145 C.3       1 <0>         0.1235
     21 N3          2.5827   -4.4816  -12.0391 N.pl3     1 <0>        -0.6318
     22 C14         1.5728   -5.4961  -11.7083 C.3       1 <0>         0.1215
     23 C15         0.8471   -5.0703  -10.4281 C.3       1 <0>        -0.1282
     24 C16         2.6081   -3.8913  -13.2978 C.ar      1 <0>         0.2101
     25 C17         3.4947   -2.8502  -13.5590 C.ar      1 <0>        -0.2050
     26 C18         3.5221   -2.2639  -14.8037 C.ar      1 <0>        -0.0211
     27 C19         2.6586   -2.7148  -15.8063 C.ar      1 <0>        -0.1413
     28 C20         1.7695   -3.7604  -15.5408 C.ar      1 <0>        -0.0374
     29 C21         1.7508   -4.3464  -14.2958 C.ar      1 <0>        -0.2001
     30 C22         2.6851   -2.0882  -17.1415 C.2       1 <0>         0.5575
     31 O4          3.4587   -1.1785  -17.3710 O.2       1 <0>        -0.5658
     32 N4          1.8519   -2.5240  -18.1071 N.am      1 <0>        -0.6549
     33 C23         1.8783   -1.9017  -19.4331 C.3       1 <0>         0.1038
     34 H2          2.9008   -1.6162  -19.6803 H         1 <0>         0.0807
     35 C24         1.3609   -2.8967  -20.4738 C.3       1 <0>        -0.1755
     36 C25         2.3064   -4.0668  -20.5637 C.2       1 <0>         0.4915
     37 O5          3.3018   -4.1016  -19.8605 O.co2     1 <0>        -0.6900
     38 O6          2.0759   -4.9786  -21.3396 O.co2     1 <0>        -0.7226
     39 C26         1.0013   -0.6761  -19.4304 C.2       1 <0>         0.4919
     40 O7          0.4092   -0.3525  -18.4150 O.co2     1 <0>        -0.7011
     41 O8          0.8840   -0.0083  -20.4437 O.co2     1 <0>        -0.7082
     42 O9          3.1122   -5.0598   -4.3782 O.3       1 <0>        -0.5529
     43 H3         -0.0429    2.4080   -1.4716 H         1 <0>         0.1173
     44 H4          1.5158    2.4027   -0.6122 H         1 <0>         0.1179
     45 H5          1.3797    3.1880   -2.2037 H         1 <0>         0.1054
     46 H6          2.1015   -1.3306   -3.5501 H         1 <0>         0.1088
     47 H7          1.2322   -5.4362   -2.7915 H         1 <0>         0.1041
     48 H8          0.0659   -4.8155   -0.7149 H         1 <0>         0.1157
     49 H9         -1.1678   -2.2752    0.0972 H         1 <0>         0.3681
     50 H10         0.6991   -4.6990   -5.4502 H         1 <0>         0.1362
     51 H11         0.9276   -2.9785   -5.8450 H         1 <0>         0.1460
     52 H12         2.8071   -3.6014   -7.1739 H         1 <0>         0.4264
     53 H13         0.4179   -5.1963   -7.7800 H         1 <0>         0.1314
     54 H14         0.6464   -3.4758   -8.1748 H         1 <0>         0.1332
     55 H15         2.4524   -5.7320   -9.1526 H         1 <0>         0.0937
     56 H16         2.2379   -2.7893   -9.9356 H         1 <0>         0.0860
     57 H17         3.5345   -3.5007   -8.9441 H         1 <0>         0.0660
     58 H18         4.1625   -3.2643  -11.3735 H         1 <0>         0.0948
     59 H19         4.2146   -4.9509  -10.7991 H         1 <0>         0.0612
     60 H20         0.8556   -5.5777  -12.5250 H         1 <0>         0.0953
     61 H21         2.0597   -6.4583  -11.5495 H         1 <0>         0.0610
     62 H22         0.1623   -5.8598  -10.1184 H         1 <0>         0.0812
     63 H23         0.2865   -4.1545  -10.6152 H         1 <0>         0.0807
     64 H24         4.1613   -2.5021  -12.7839 H         1 <0>         0.1204
     65 H25         4.2099   -1.4561  -15.0056 H         1 <0>         0.1343
     66 H26         1.1008   -4.1107  -16.3132 H         1 <0>         0.1282
     67 H27         1.0674   -5.1574  -14.0916 H         1 <0>         0.1217
     68 H28         1.2348   -3.2496  -17.9241 H         1 <0>         0.3813
     69 H29         0.3728   -3.2499  -20.1791 H         1 <0>         0.0502
     70 H30         1.2966   -2.4062  -21.4451 H         1 <0>         0.0752
     71 H31         2.5188   -5.7888   -4.1510 H         1 <0>         0.3828
     72 H32         2.5956   -5.1941   -6.8084 H         1 <0>         0.4270
@<TRIPOS>BOND
     1    1    2 1
     2    1   43 1
     3    1   44 1
     4    1   45 1
     5    2    3 2
     6    2    4 2
     7    2    5 1
     8    5    6 1
     9    6   11 ar
    10    6    7 ar
    11    7    8 ar
    12    7   46 1
    13    8    9 ar
    14    8   13 1
    15    9   10 ar
    16    9   47 1
    17   10   11 ar
    18   10   48 1
    19   11   12 1
    20   12   49 1
    21   13   14 1
    22   13   15 1
    23   13   42 1
    24   15   16 1
    25   15   50 1
    26   15   51 1
    27   16   17 1
    28   16   52 1
    29   16   72 1
    30   17   18 1
    31   17   53 1
    32   17   54 1
    33   18   23 1
    34   18   19 1
    35   18   55 1
    36   19   20 1
    37   19   56 1
    38   19   57 1
    39   20   21 1
    40   20   58 1
    41   20   59 1
    42   21   22 1
    43   21   24 1
    44   22   23 1
    45   22   60 1
    46   22   61 1
    47   23   62 1
    48   23   63 1
    49   24   29 ar
    50   24   25 ar
    51   25   26 ar
    52   25   64 1
    53   26   27 ar
    54   26   65 1
    55   27   28 ar
    56   27   30 1
    57   28   29 ar
    58   28   66 1
    59   29   67 1
    60   30   31 2
    61   30   32 am
    62   32   33 1
    63   32   68 1
    64   33   34 1
    65   33   35 1
    66   33   39 1
    67   35   36 1
    68   35   69 1
    69   35   70 1
    70   36   37 2
    71   36   38 1
    72   39   40 2
    73   39   41 1
    74   42   71 1
@<TRIPOS>MOLECULE
CHEMBL101521
   73    75     0     0     0
SMALL
USER_CHARGES

@<TRIPOS>ATOM
      1 C1          0.0365    1.8244    0.1708 C.3       1 <0>        -0.6691
      2 S1          0.0156    0.0171    0.0165 S.o2      1 <0>         2.6052
      3 O1          0.8578   -0.5678    1.0002 O.2       1 <0>        -0.9477
      4 O2         -1.3167   -0.4434   -0.1631 O.2       1 <0>        -0.9372
      5 N1          0.7688   -0.2957   -1.4248 N.pl3     1 <0>        -1.0513
      6 C2          2.0929    0.1111   -1.6252 C.ar      1 <0>         0.1378
      7 C3          2.9967    0.0806   -0.5731 C.ar      1 <0>        -0.1473
      8 C4          4.3039    0.4823   -0.7737 C.ar      1 <0>        -0.1166
      9 C5          4.7140    0.9150   -2.0211 C.ar      1 <0>        -0.1040
     10 C6          3.8187    0.9481   -3.0744 C.ar      1 <0>        -0.1134
     11 C7          2.5084    0.5422   -2.8831 C.ar      1 <0>         0.1066
     12 O3          1.6281    0.5693   -3.9195 O.3       1 <0>        -0.4883
     13 C8          5.2844    0.4491    0.3703 C.3       1 <0>         0.1325
     14 H1          4.9621   -0.2901    1.1037 H         1 <0>         0.1383
     15 C9          5.3458    1.8284    1.0295 C.3       1 <0>        -0.0444
     16 N2          6.3016    1.7961    2.1446 N.4       1 <0>        -0.5065
     17 C10         6.3605    3.1204    2.7776 C.3       1 <0>        -0.0066
     18 C11         7.3560    3.0867    3.9390 C.3       1 <0>        -0.1107
     19 C12         6.8404    2.1397    5.0251 C.3       1 <0>        -0.1477
     20 C13         7.8559    2.0818    6.1706 C.3       1 <0>         0.1235
     21 N3          8.1199    3.4494    6.6381 N.pl3     1 <0>        -0.6327
     22 C14         8.5339    4.4633    5.6586 C.3       1 <0>         0.1201
     23 C15         7.5108    4.4945    4.5189 C.3       1 <0>        -0.1281
     24 C16         7.9801    3.7781    7.9819 C.ar      1 <0>         0.2050
     25 C17         7.7114    2.7817    8.9164 C.ar      1 <0>        -0.2032
     26 C18         7.5725    3.1038   10.2471 C.ar      1 <0>        -0.0221
     27 C19         7.7015    4.4331   10.6601 C.ar      1 <0>        -0.1361
     28 C20         7.9713    5.4313    9.7193 C.ar      1 <0>        -0.0380
     29 C21         8.1147    5.1020    8.3909 C.ar      1 <0>        -0.1985
     30 C22         7.5527    4.7819   12.0857 C.2       1 <0>         0.5553
     31 O4          7.3176    3.9127   12.9029 O.2       1 <0>        -0.5643
     32 N4          7.6773    6.0639   12.4824 N.am      1 <0>        -0.6531
     33 C23         7.5295    6.4103   13.8982 C.3       1 <0>         0.1035
     34 H2          7.9323    5.6054   14.5131 H         1 <0>         0.0815
     35 C24         8.2919    7.7046   14.1889 C.3       1 <0>        -0.1759
     36 C25         9.7674    7.4747   13.9866 C.2       1 <0>         0.4914
     37 O5         10.1718    6.3773   13.6419 O.co2     1 <0>        -0.6912
     38 O6         10.5568    8.3860   14.1676 O.co2     1 <0>        -0.7208
     39 C26         6.0697    6.6045   14.2181 C.2       1 <0>         0.4922
     40 O7          5.2305    6.4663   13.3445 O.co2     1 <0>        -0.7031
     41 O8          5.7278    6.8997   15.3506 O.co2     1 <0>        -0.7057
     42 O9          6.5792    0.0985   -0.1222 O.3       1 <0>        -0.5438
     43 H3          1.0678    2.1773    0.1699 H         1 <0>         0.1259
     44 H4         -0.4997    2.2670   -0.6687 H         1 <0>         0.1347
     45 H5         -0.4461    2.1150    1.1039 H         1 <0>         0.1408
     46 H6          0.2922   -0.7608   -2.1301 H         1 <0>         0.4358
     47 H7          2.6788   -0.2566    0.4024 H         1 <0>         0.1716
     48 H8          5.7363    1.2284   -2.1732 H         1 <0>         0.1321
     49 H9          4.1424    1.2867   -4.0476 H         1 <0>         0.1437
     50 H10         1.1511    1.4058   -4.0087 H         1 <0>         0.3974
     51 H11         5.6680    2.5677    0.2962 H         1 <0>         0.1380
     52 H12         4.3582    2.0959    1.4052 H         1 <0>         0.1449
     53 H13         6.0033    1.1118    2.8235 H         1 <0>         0.4295
     54 H14         6.6828    3.8596    2.0442 H         1 <0>         0.1328
     55 H15         5.3729    3.3879    3.1533 H         1 <0>         0.1337
     56 H16         8.3224    2.7340    3.5788 H         1 <0>         0.0954
     57 H17         5.8858    2.5052    5.4033 H         1 <0>         0.0855
     58 H18         6.7082    1.1424    4.6054 H         1 <0>         0.0637
     59 H19         7.4498    1.4877    6.9893 H         1 <0>         0.0954
     60 H20         8.7829    1.6320    5.8148 H         1 <0>         0.0608
     61 H21         8.5751    5.4406    6.1395 H         1 <0>         0.0976
     62 H22         9.5161    4.2077    5.2611 H         1 <0>         0.0617
     63 H23         7.8557    5.1733    3.7389 H         1 <0>         0.0812
     64 H24         6.5498    4.8379    4.9019 H         1 <0>         0.0807
     65 H25         7.6115    1.7550    8.5966 H         1 <0>         0.1196
     66 H26         7.3637    2.3305   10.9715 H         1 <0>         0.1353
     67 H27         8.0711    6.4592   10.0353 H         1 <0>         0.1294
     68 H28         8.3279    5.8721    7.6642 H         1 <0>         0.1215
     69 H29         7.8648    6.7573   11.8305 H         1 <0>         0.3811
     70 H30         7.9500    8.4875   13.5119 H         1 <0>         0.0502
     71 H31         8.1096    8.0100   15.2192 H         1 <0>         0.0762
     72 H32         6.9296    0.7140   -0.7805 H         1 <0>         0.3871
     73 H33         7.2158    1.5485    1.7969 H         1 <0>         0.4312
@<TRIPOS>BOND
     1    1    2 1
     2    1   43 1
     3    1   44 1
     4    1   45 1
     5    2    3 2
     6    2    4 2
     7    2    5 1
     8    5    6 1
     9    5   46 1
    10    6   11 ar
    11    6    7 ar
    12    7    8 ar
    13    7   47 1
    14    8    9 ar
    15    8   13 1
    16    9   10 ar
    17    9   48 1
    18   10   11 ar
    19   10   49 1
    20   11   12 1
    21   12   50 1
    22   13   14 1
    23   13   15 1
    24   13   42 1
    25   15   16 1
    26   15   51 1
    27   15   52 1
    28   16   17 1
    29   16   53 1
    30   16   73 1
    31   17   18 1
    32   17   54 1
    33   17   55 1
    34   18   23 1
    35   18   19 1
    36   18   56 1
    37   19   20 1
    38   19   57 1
    39   19   58 1
    40   20   21 1
    41   20   59 1
    42   20   60 1
    43   21   22 1
    44   21   24 1
    45   22   23 1
    46   22   61 1
    47   22   62 1
    48   23   63 1
    49   23   64 1
    50   24   29 ar
    51   24   25 ar
    52   25   26 ar
    53   25   65 1
    54   26   27 ar
    55   26   66 1
    56   27   28 ar
    57   27   30 1
    58   28   29 ar
    59   28   67 1
    60   29   68 1
    61   30   31 2
    62   30   32 am
    63   32   33 1
    64   32   69 1
    65   33   34 1
    66   33   35 1
    67   33   39 1
    68   35   36 1
    69   35   70 1
    70   35   71 1
    71   36   37 2
    72   36   38 1
    73   39   40 2
    74   39   41 1
    75   42   72 1
@<TRIPOS>MOLECULE
CHEMBL289689
   71    75     0     0     0
SMALL
USER_CHARGES

@<TRIPOS>ATOM
      1 C1          0.1334    1.3200    0.1499 C.ar      1 <0>        -0.1642
      2 C2          1.3055    2.0601    0.1103 C.ar      1 <0>        -0.0546
      3 C3          2.5146    1.3820    0.1179 C.ar      1 <0>        -0.2009
      4 C4          2.5118    0.0005    0.1643 C.ar      1 <0>         0.1176
      5 N1          1.3775   -0.6708    0.2007 N.ar      1 <0>        -0.4744
      6 C5          0.2091   -0.0590    0.1952 C.ar      1 <0>         0.1224
      7 C6          3.8156    2.1414    0.0756 C.3       1 <0>         0.1416
      8 H1          3.6649    3.1430    0.4781 H         1 <0>         0.1342
      9 C7          4.3010    2.2412   -1.3719 C.3       1 <0>        -0.0429
     10 N2          5.5692    2.9814   -1.4132 N.4       1 <0>        -0.5057
     11 C8          6.0353    3.0772   -2.8030 C.3       1 <0>        -0.0086
     12 C9          7.3561    3.8482   -2.8459 C.3       1 <0>        -0.0998
     13 C10         7.8342    3.9465   -4.2717 C.ar      1 <0>        -0.1190
     14 C11         8.6522    2.9616   -4.7944 C.ar      1 <0>        -0.0884
     15 C12         9.0922    3.0486   -6.1006 C.ar      1 <0>        -0.1247
     16 C13         8.7122    4.1269   -6.8895 C.ar      1 <0>         0.1653
     17 C14         7.8904    5.1145   -6.3613 C.ar      1 <0>        -0.1491
     18 C15         7.4494    5.0184   -5.0560 C.ar      1 <0>        -0.0832
     19 N3          9.1557    4.2182   -8.2108 N.pl3     1 <0>        -1.0596
     20 S1          8.0883    4.6000   -9.4180 S.o2      1 <0>         2.6876
     21 O1          7.4211    5.7864   -9.0100 O.2       1 <0>        -0.9440
     22 O2          8.8088    4.5128  -10.6397 O.2       1 <0>        -0.9377
     23 C16         6.8712    3.3266   -9.4592 C.ar      1 <0>        -0.6758
     24 C17         7.1127    2.1653  -10.1708 C.ar      1 <0>        -0.0117
     25 C18         6.1629    1.1646  -10.2065 C.ar      1 <0>        -0.1094
     26 C19         4.9590    1.3256   -9.5235 C.ar      1 <0>         0.0539
     27 C20         4.7212    2.4973   -8.8078 C.ar      1 <0>        -0.1332
     28 C21         5.6801    3.4895   -8.7750 C.ar      1 <0>        -0.0137
     29 C22         3.9338    0.2534   -9.5586 C.2       1 <0>         0.0088
     30 C23         2.7239    0.2791   -8.9483 C.2       1 <0>        -0.0411
     31 O3          2.1140   -0.8866   -9.2361 O.3       1 <0>        -0.1913
     32 C24         2.9402   -1.6060  -10.0075 C.2       1 <0>         0.2119
     33 N4          4.0316   -0.9273  -10.2100 N.2       1 <0>        -0.4620
     34 C25         2.6497   -2.9789  -10.5568 C.3       1 <0>         0.0151
     35 C26         3.1259   -4.0222   -9.5791 C.ar      1 <0>        -0.0786
     36 C27         4.4173   -4.5086   -9.6628 C.ar      1 <0>        -0.0781
     37 C28         4.8563   -5.4655   -8.7672 C.ar      1 <0>        -0.1244
     38 C29         4.0029   -5.9374   -7.7851 C.ar      1 <0>         0.0757
     39 C30         2.7079   -5.4493   -7.7009 C.ar      1 <0>         0.0681
     40 C31         2.2729   -4.4876   -8.5962 C.ar      1 <0>        -0.1130
     41 F1          1.8729   -5.9088   -6.7433 F         1 <0>        -0.1247
     42 F2          4.4311   -6.8731   -6.9096 F         1 <0>        -0.1242
     43 O4          4.7934    1.4551    0.8597 O.3       1 <0>        -0.5457
     44 H2         -0.8263    1.8152    0.1497 H         1 <0>         0.1473
     45 H3          1.2770    3.1391    0.0741 H         1 <0>         0.1412
     46 H4          3.4495   -0.5353    0.1705 H         1 <0>         0.1527
     47 H5         -0.6991   -0.6427    0.2266 H         1 <0>         0.1671
     48 H6          4.4517    1.2395   -1.7745 H         1 <0>         0.1372
     49 H7          3.5551    2.7647   -1.9700 H         1 <0>         0.1446
     50 H8          5.4297    3.9086   -1.0405 H         1 <0>         0.4302
     51 H9          6.1860    2.0755   -3.2055 H         1 <0>         0.1332
     52 H10         5.2894    3.6007   -3.4011 H         1 <0>         0.1344
     53 H11         7.2054    4.8498   -2.4434 H         1 <0>         0.0984
     54 H12         8.1020    3.3247   -2.2479 H         1 <0>         0.0977
     55 H13         8.9476    2.1237   -4.1804 H         1 <0>         0.1301
     56 H14         9.7313    2.2793   -6.5082 H         1 <0>         0.1358
     57 H15         7.5934    5.9544   -6.9718 H         1 <0>         0.1625
     58 H16         6.8069    5.7836   -4.6460 H         1 <0>         0.1330
     59 H17        10.0889    4.0581   -8.4213 H         1 <0>         0.4327
     60 H18         8.0461    2.0416  -10.6998 H         1 <0>         0.1456
     61 H19         6.3522    0.2586  -10.7630 H         1 <0>         0.1457
     62 H20         3.7899    2.6273   -8.2767 H         1 <0>         0.1333
     63 H21         5.4985    4.3963   -8.2173 H         1 <0>         0.1447
     64 H22         2.3251    1.0815   -8.3453 H         1 <0>         0.2198
     65 H23         1.5763   -3.0888  -10.7113 H         1 <0>         0.1145
     66 H24         3.1686   -3.1074  -11.5067 H         1 <0>         0.1284
     67 H25         5.0837   -4.1408  -10.4289 H         1 <0>         0.1474
     68 H26         5.8652   -5.8452   -8.8341 H         1 <0>         0.1515
     69 H27         1.2656   -4.1038   -8.5293 H         1 <0>         0.1494
     70 H28         4.9784    0.5551    0.5581 H         1 <0>         0.3900
     71 H29         6.2596    2.4968   -0.8595 H         1 <0>         0.4329
@<TRIPOS>BOND
     1    1    6 ar
     2    1    2 ar
     3    1   44 1
     4    2    3 ar
     5    2   45 1
     6    3    4 ar
     7    3    7 1
     8    4    5 ar
     9    4   46 1
    10    5    6 ar
    11    6   47 1
    12    7    8 1
    13    7    9 1
    14    7   43 1
    15    9   10 1
    16    9   48 1
    17    9   49 1
    18   10   11 1
    19   10   50 1
    20   10   71 1
    21   11   12 1
    22   11   51 1
    23   11   52 1
    24   12   13 1
    25   12   53 1
    26   12   54 1
    27   13   18 ar
    28   13   14 ar
    29   14   15 ar
    30   14   55 1
    31   15   16 ar
    32   15   56 1
    33   16   17 ar
    34   16   19 1
    35   17   18 ar
    36   17   57 1
    37   18   58 1
    38   19   20 1
    39   19   59 1
    40   20   21 2
    41   20   22 2
    42   20   23 1
    43   23   28 ar
    44   23   24 ar
    45   24   25 ar
    46   24   60 1
    47   25   26 ar
    48   25   61 1
    49   26   27 ar
    50   26   29 1
    51   27   28 ar
    52   27   62 1
    53   28   63 1
    54   29   33 1
    55   29   30 2
    56   30   31 1
    57   30   64 1
    58   31   32 1
    59   32   33 2
    60   32   34 1
    61   34   35 1
    62   34   65 1
    63   34   66 1
    64   35   40 ar
    65   35   36 ar
    66   36   37 ar
    67   36   67 1
    68   37   38 ar
    69   37   68 1
    70   38   39 ar
    71   38   42 1
    72   39   40 ar
    73   39   41 1
    74   40   69 1
    75   43   70 1
@<TRIPOS>MOLECULE
CHEMBL289689
   70    74     0     0     0
SMALL
USER_CHARGES

@<TRIPOS>ATOM
      1 C1         -0.0167    1.3776    0.0096 C.ar      1 <0>        -0.1653
      2 C2          1.1849    2.0698    0.0019 C.ar      1 <0>        -0.0551
      3 C3          2.3651    1.3426   -0.0133 C.ar      1 <0>        -0.1953
      4 C4          2.3054   -0.0383   -0.0202 C.ar      1 <0>         0.1171
      5 N1          1.1443   -0.6632   -0.0129 N.ar      1 <0>        -0.4762
      6 C5          0.0021   -0.0041    0.0020 C.ar      1 <0>         0.1183
      7 C6          3.6964    2.0488   -0.0227 C.3       1 <0>         0.1403
      8 H1          3.5852    3.0397    0.4177 H         1 <0>         0.1328
      9 C7          4.1918    2.1840   -1.4640 C.3       1 <0>        -0.0425
     10 N2          5.4895    2.8724   -1.4731 N.4       1 <0>        -0.5054
     11 C8          5.9652    3.0022   -2.8569 C.3       1 <0>        -0.0112
     12 C9          7.3168    3.7191   -2.8665 C.3       1 <0>        -0.0710
     13 C10         7.8047    3.8523   -4.2861 C.ar      1 <0>        -0.2361
     14 C11         8.5838    2.8554   -4.8441 C.ar      1 <0>        -0.0637
     15 C12         9.0327    2.9742   -6.1447 C.ar      1 <0>        -0.1809
     16 C13         8.7007    4.0968   -6.8926 C.ar      1 <0>         0.2965
     17 C14         7.9179    5.0963   -6.3289 C.ar      1 <0>        -0.2650
     18 C15         7.4677    4.9685   -5.0296 C.ar      1 <0>        -0.0476
     19 N3          9.1534    4.2204   -8.2081 N.2       1 <0>        -1.0818
     20 S1          8.7565    5.5594   -9.0980 S.o2      1 <0>         2.6083
     21 O1          7.3500    5.5136   -9.2953 O.2       1 <0>        -1.0268
     22 O2          9.4036    6.6637   -8.4807 O.2       1 <0>        -1.0239
     23 C16         9.4944    5.3669  -10.6864 C.ar      1 <0>        -0.6138
     24 C17        10.7741    5.8403  -10.9136 C.ar      1 <0>        -0.0224
     25 C18        11.3570    5.6922  -12.1558 C.ar      1 <0>        -0.1126
     26 C19        10.6541    5.0639  -13.1819 C.ar      1 <0>         0.0229
     27 C20         9.3654    4.5885  -12.9473 C.ar      1 <0>        -0.1321
     28 C21         8.7941    4.7378  -11.6998 C.ar      1 <0>        -0.0213
     29 C22        11.2754    4.9022  -14.5197 C.2       1 <0>         0.0255
     30 C23        10.7074    4.3195  -15.6036 C.2       1 <0>        -0.0494
     31 O3         11.6091    4.3841  -16.6019 O.3       1 <0>        -0.1954
     32 C24        12.7042    4.9954  -16.1308 C.2       1 <0>         0.1957
     33 N4         12.5104    5.3142  -14.8844 N.2       1 <0>        -0.4607
     34 C25        13.9577    5.2739  -16.9197 C.3       1 <0>         0.0200
     35 C26        14.9053    4.1099  -16.7846 C.ar      1 <0>        -0.0762
     36 C27        15.8283    4.0867  -15.7556 C.ar      1 <0>        -0.0776
     37 C28        16.6984    3.0203  -15.6296 C.ar      1 <0>        -0.1241
     38 C29        16.6460    1.9738  -16.5339 C.ar      1 <0>         0.0736
     39 C30        15.7200    1.9968  -17.5657 C.ar      1 <0>         0.0674
     40 C31        14.8468    3.0639  -17.6862 C.ar      1 <0>        -0.1126
     41 F1         15.6673    0.9767  -18.4498 F         1 <0>        -0.1263
     42 F2         17.4964    0.9312  -16.4117 F         1 <0>        -0.1262
     43 O4          4.6418    1.2932    0.7371 O.3       1 <0>        -0.5468
     44 H2         -0.9552    1.9117    0.0259 H         1 <0>         0.1455
     45 H3          1.2009    3.1496    0.0072 H         1 <0>         0.1413
     46 H4          3.2203   -0.6121   -0.0320 H         1 <0>         0.1538
     47 H5         -0.9294   -0.5505    0.0083 H         1 <0>         0.1651
     48 H6          4.3030    1.1932   -1.9044 H         1 <0>         0.1360
     49 H7          3.4707    2.7604   -2.0435 H         1 <0>         0.1428
     50 H8          5.3866    3.7896   -1.0655 H         1 <0>         0.4264
     51 H9          6.0764    2.0113   -3.2973 H         1 <0>         0.1307
     52 H10         5.2440    3.5785   -3.4365 H         1 <0>         0.1304
     53 H11         7.2056    4.7100   -2.4261 H         1 <0>         0.0796
     54 H12         8.0379    3.1428   -2.2869 H         1 <0>         0.0808
     55 H13         8.8419    1.9830   -4.2620 H         1 <0>         0.1045
     56 H14         9.6415    2.1954   -6.5798 H         1 <0>         0.1168
     57 H15         7.6583    5.9706   -6.9075 H         1 <0>         0.1015
     58 H16         6.8554    5.7432   -4.5922 H         1 <0>         0.1016
     59 H17        11.3180    6.3271  -10.1176 H         1 <0>         0.1407
     60 H18        12.3559    6.0628  -12.3323 H         1 <0>         0.1371
     61 H19         8.8162    4.1009  -13.7391 H         1 <0>         0.1286
     62 H20         7.7969    4.3660  -11.5157 H         1 <0>         0.1408
     63 H21         9.7199    3.8853  -15.6565 H         1 <0>         0.2214
     64 H22        13.7022    5.4144  -17.9700 H         1 <0>         0.1109
     65 H23        14.4343    6.1767  -16.5378 H         1 <0>         0.1250
     66 H24        15.8697    4.9030  -15.0496 H         1 <0>         0.1477
     67 H25        17.4194    3.0037  -14.8257 H         1 <0>         0.1506
     68 H26        14.1226    3.0813  -18.4872 H         1 <0>         0.1492
     69 H27         4.7910    0.3986    0.4015 H         1 <0>         0.3893
     70 H28         6.1570    2.3389   -0.9367 H         1 <0>         0.4292
@<TRIPOS>BOND
     1    1    6 ar
     2    1    2 ar
     3    1   44 1
     4    2    3 ar
     5    2   45 1
     6    3    4 ar
     7    3    7 1
     8    4    5 ar
     9    4   46 1
    10    5    6 ar
    11    6   47 1
    12    7    8 1
    13    7    9 1
    14    7   43 1
    15    9   10 1
    16    9   48 1
    17    9   49 1
    18   10   11 1
    19   10   50 1
    20   10   70 1
    21   11   12 1
    22   11   51 1
    23   11   52 1
    24   12   13 1
    25   12   53 1
    26   12   54 1
    27   13   18 ar
    28   13   14 ar
    29   14   15 ar
    30   14   55 1
    31   15   16 ar
    32   15   56 1
    33   16   17 ar
    34   16   19 1
    35   17   18 ar
    36   17   57 1
    37   18   58 1
    38   19   20 1
    39   20   21 2
    40   20   22 2
    41   20   23 1
    42   23   28 ar
    43   23   24 ar
    44   24   25 ar
    45   24   59 1
    46   25   26 ar
    47   25   60 1
    48   26   27 ar
    49   26   29 1
    50   27   28 ar
    51   27   61 1
    52   28   62 1
    53   29   33 1
    54   29   30 2
    55   30   31 1
    56   30   63 1
    57   31   32 1
    58   32   33 2
    59   32   34 1
    60   34   35 1
    61   34   64 1
    62   34   65 1
    63   35   40 ar
    64   35   36 ar
    65   36   37 ar
    66   36   66 1
    67   37   38 ar
    68   37   67 1
    69   38   39 ar
    70   38   42 1
    71   39   40 ar
    72   39   41 1
    73   40   68 1
    74   43   69 1
@<TRIPOS>MOLECULE
CHEMBL43850
   46    49     0     0     0
SMALL
USER_CHARGES

@<TRIPOS>ATOM
      1 C1         -0.0030    1.2399   -1.2800 C.ar      1 <0>        -0.0768
      2 C2          1.1737    1.9716   -1.2145 C.ar      1 <0>        -0.0772
      3 C3          2.3879    1.3323   -1.0875 C.ar      1 <0>        -0.0823
      4 C4          2.4348   -0.0573   -1.0245 C.ar      1 <0>         0.0703
      5 C5          1.2434   -0.7981   -1.0908 C.ar      1 <0>         0.0727
      6 C6          0.0256   -0.1365   -1.2190 C.ar      1 <0>        -0.0821
      7 N1          1.6008   -2.1181   -1.0052 N.pl3     1 <0>        -0.5521
      8 H1          0.9917   -2.8728   -1.0236 H         1 <0>         0.4591
      9 C7          2.9253   -2.1894   -0.8934 C.cat     1 <0>         0.6518
     10 N2          3.4521   -0.9670   -0.9022 N.pl3     1 <0>        -0.5523
     11 N3          3.6446   -3.3561   -0.7846 N.pl3     1 <0>        -0.6726
     12 C8          5.1041   -3.3085   -0.6667 C.3       1 <0>         0.0717
     13 C9          5.6539   -4.7323   -0.5609 C.3       1 <0>         0.1028
     14 C10         7.1628   -4.6793   -0.3130 C.3       1 <0>         0.0456
     15 O1          7.6571   -6.0028   -0.0984 O.3       1 <0>        -0.2216
     16 N4          9.0512   -6.0650    0.1418 N.2       1 <0>        -0.3452
     17 C11         9.6149   -7.1949    0.3488 C.2       1 <0>         0.2150
     18 C12         8.7794   -8.4437    0.4652 C.3       1 <0>        -0.1608
     19 C13         7.5442   -8.3859    1.3662 C.3       1 <0>        -0.1534
     20 C14         8.7798   -9.1710    1.8112 C.3       1 <0>        -0.1605
     21 C15        11.1142   -7.2768    0.4762 C.3       1 <0>        -0.1159
     22 C16        11.7643   -6.5457    1.6526 C.3       1 <0>        -0.1552
     23 C17        11.9150   -5.9960    0.2327 C.3       1 <0>        -0.1597
     24 O2          5.3957   -5.4344   -1.7785 O.3       1 <0>        -0.5429
     25 H2         -0.9487    1.7528   -1.3750 H         1 <0>         0.1552
     26 H3          1.1380    3.0499   -1.2637 H         1 <0>         0.1551
     27 H4          3.3004    1.9078   -1.0374 H         1 <0>         0.1504
     28 H5         -0.8942   -0.7001   -1.2709 H         1 <0>         0.1510
     29 H6          3.1858   -4.2107   -0.7859 H         1 <0>         0.4437
     30 H7          5.5240   -2.8213   -1.5468 H         1 <0>         0.0971
     31 H8          5.3784   -2.7458    0.2256 H         1 <0>         0.1028
     32 H9          5.1677   -5.2490    0.2665 H         1 <0>         0.1252
     33 H10         7.6583   -4.2425   -1.1800 H         1 <0>         0.0664
     34 H11         7.3651   -4.0687    0.5670 H         1 <0>         0.0692
     35 H12         8.7172   -9.0533   -0.4363 H         1 <0>         0.1245
     36 H13         7.3359   -7.4447    1.8748 H         1 <0>         0.0914
     37 H14         6.6690   -8.9575    1.0576 H         1 <0>         0.0994
     38 H15         8.7173  -10.2591    1.7954 H         1 <0>         0.1041
     39 H16         9.3842   -8.7462    2.6127 H         1 <0>         0.0990
     40 H17        11.5623   -8.2184    0.1589 H         1 <0>         0.1350
     41 H18        11.1074   -6.0054    2.3343 H         1 <0>         0.0958
     42 H19        12.6401   -7.0063    2.1096 H         1 <0>         0.1077
     43 H20        12.8899   -6.0950   -0.2445 H         1 <0>         0.1046
     44 H21        11.3573   -5.0941   -0.0197 H         1 <0>         0.1034
     45 H22         5.7991   -5.0300   -2.5588 H         1 <0>         0.3842
     46 H23         4.3964   -0.7559   -0.8339 H         1 <0>         0.4564
@<TRIPOS>BOND
     1    1    6 ar
     2    1    2 ar
     3    1   25 1
     4    2    3 ar
     5    2   26 1
     6    3    4 ar
     7    3   27 1
     8    4   10 1
     9    4    5 ar
    10    5    6 ar
    11    5    7 1
    12    6   28 1
    13    7    8 1
    14    7    9 1
    15    9   10 2
    16    9   11 1
    17   10   46 1
    18   11   12 1
    19   11   29 1
    20   12   13 1
    21   12   30 1
    22   12   31 1
    23   13   14 1
    24   13   24 1
    25   13   32 1
    26   14   15 1
    27   14   33 1
    28   14   34 1
    29   15   16 1
    30   16   17 2
    31   17   18 1
    32   17   21 1
    33   18   20 1
    34   18   19 1
    35   18   35 1
    36   19   20 1
    37   19   36 1
    38   19   37 1
    39   20   38 1
    40   20   39 1
    41   21   23 1
    42   21   22 1
    43   21   40 1
    44   22   23 1
    45   22   41 1
    46   22   42 1
    47   23   43 1
    48   23   44 1
    49   24   45 1
@<TRIPOS>MOLECULE
CHEMBL43850
   45    48     0     0     0
SMALL
USER_CHARGES

@<TRIPOS>ATOM
      1 C1          0.1043    1.2976    1.2301 C.ar      1 <0>        -0.1165
      2 C2          1.2978    2.0016    1.2922 C.ar      1 <0>        -0.1186
      3 C3          2.5034    1.3423    1.2052 C.ar      1 <0>        -0.0818
      4 C4          2.5253   -0.0464    1.0536 C.ar      1 <0>         0.0833
      5 C5          1.3139   -0.7543    0.9917 C.ar      1 <0>         0.0368
      6 C6          0.1090   -0.0739    1.0806 C.ar      1 <0>        -0.1044
      7 N1          1.6546   -2.0887    0.8420 N.pl3     1 <0>        -0.6236
      8 H1          1.0392   -2.8349    0.7685 H         1 <0>         0.4174
      9 C7          3.0181   -2.1581    0.8172 C.2       1 <0>         0.5489
     10 N2          3.5273   -0.9578    0.9416 N.2       1 <0>        -0.5450
     11 N3          3.7499   -3.3190    0.6819 N.pl3     1 <0>        -0.7014
     12 C8          3.0635   -4.6066    0.5508 C.3       1 <0>         0.0955
     13 C9          4.0987   -5.7251    0.4162 C.3       1 <0>         0.1058
     14 C10         3.3843   -7.0525    0.1546 C.3       1 <0>         0.0453
     15 O1          4.3527   -8.0752   -0.0865 O.3       1 <0>        -0.2174
     16 N4          3.7924   -9.3505   -0.3411 N.2       1 <0>        -0.3436
     17 C11         4.5565  -10.3505   -0.5721 C.2       1 <0>         0.2035
     18 C12         3.9687  -11.7307   -0.7153 C.3       1 <0>        -0.1113
     19 C13         3.0137  -11.9739   -1.8857 C.3       1 <0>        -0.1575
     20 C14         2.4688  -11.8899   -0.4585 C.3       1 <0>        -0.1612
     21 C15         6.0443  -10.1481   -0.7010 C.3       1 <0>        -0.1579
     22 C16         6.5266   -8.9993   -1.5890 C.3       1 <0>        -0.1521
     23 C17         6.6829  -10.4470   -2.0588 C.3       1 <0>        -0.1632
     24 O2          4.8556   -5.8215    1.6245 O.3       1 <0>        -0.5439
     25 H2         -0.8347    1.8261    1.3038 H         1 <0>         0.1288
     26 H3          1.2814    3.0751    1.4094 H         1 <0>         0.1290
     27 H4          3.4289    1.8967    1.2535 H         1 <0>         0.1286
     28 H5         -0.8237   -0.6163    1.0332 H         1 <0>         0.1199
     29 H6          4.7192   -3.2831    0.6736 H         1 <0>         0.4296
     30 H7          2.4505   -4.7832    1.4346 H         1 <0>         0.0703
     31 H8          2.4282   -4.5911   -0.3348 H         1 <0>         0.0756
     32 H9          4.7679   -5.5027   -0.4149 H         1 <0>         0.1186
     33 H10         2.7831   -7.3190    1.0239 H         1 <0>         0.0629
     34 H11         2.7377   -6.9515   -0.7171 H         1 <0>         0.0667
     35 H12         4.6202  -12.5524   -0.4179 H         1 <0>         0.1323
     36 H13         2.8106  -11.1356   -2.5521 H         1 <0>         0.0959
     37 H14         3.0369  -12.9557   -2.3586 H         1 <0>         0.1050
     38 H15         2.1336  -12.8165    0.0076 H         1 <0>         0.1024
     39 H16         1.9072  -10.9964   -0.1859 H         1 <0>         0.1044
     40 H17         6.6285  -10.3747    0.1908 H         1 <0>         0.1223
     41 H18         5.7678   -8.3899   -2.0800 H         1 <0>         0.0933
     42 H19         7.4284   -8.4698   -1.2814 H         1 <0>         0.1000
     43 H20         7.6875  -10.8699   -2.0603 H         1 <0>         0.1014
     44 H21         6.0270  -10.7900   -2.8589 H         1 <0>         0.0971
     45 H22         4.3232   -6.0181    2.4074 H         1 <0>         0.3787
@<TRIPOS>BOND
     1    1    6 ar
     2    1    2 ar
     3    1   25 1
     4    2    3 ar
     5    2   26 1
     6    3    4 ar
     7    3   27 1
     8    4   10 1
     9    4    5 ar
    10    5    6 ar
    11    5    7 1
    12    6   28 1
    13    7    8 1
    14    7    9 1
    15    9   10 2
    16    9   11 1
    17   11   12 1
    18   11   29 1
    19   12   13 1
    20   12   30 1
    21   12   31 1
    22   13   14 1
    23   13   24 1
    24   13   32 1
    25   14   15 1
    26   14   33 1
    27   14   34 1
    28   15   16 1
    29   16   17 2
    30   17   18 1
    31   17   21 1
    32   18   20 1
    33   18   19 1
    34   18   35 1
    35   19   20 1
    36   19   36 1
    37   19   37 1
    38   20   38 1
    39   20   39 1
    40   21   23 1
    41   21   22 1
    42   21   40 1
    43   22   23 1
    44   22   41 1
    45   22   42 1
    46   23   43 1
    47   23   44 1
    48   24   45 1
@<TRIPOS>MOLECULE
CHEMBL43850
   46    49     0     0     0
SMALL
USER_CHARGES

@<TRIPOS>ATOM
      1 C1          0.0107    1.3621   -1.2848 C.ar      1 <0>        -0.0768
      2 C2          1.1940    2.0830   -1.2169 C.ar      1 <0>        -0.0772
      3 C3          2.4022    1.4326   -1.0894 C.ar      1 <0>        -0.0824
      4 C4          2.4364    0.0425   -1.0282 C.ar      1 <0>         0.0703
      5 C5          1.2385   -0.6873   -1.0969 C.ar      1 <0>         0.0727
      6 C6          0.0268   -0.0145   -1.2257 C.ar      1 <0>        -0.0821
      7 N1          1.5838   -2.0106   -1.0128 N.pl3     1 <0>        -0.5521
      8 H1          0.9679   -2.7598   -1.0329 H         1 <0>         0.4591
      9 C7          2.9075   -2.0941   -0.8995 C.cat     1 <0>         0.6518
     10 N2          3.4453   -0.8765   -0.9059 N.pl3     1 <0>        -0.5523
     11 N3          3.6161   -3.2674   -0.7914 N.pl3     1 <0>        -0.6722
     12 C8          5.0758   -3.2331   -0.6718 C.3       1 <0>         0.0715
     13 C9          5.6126   -4.6621   -0.5673 C.3       1 <0>         0.1028
     14 C10         7.1370   -4.6263   -0.4423 C.3       1 <0>         0.0457
     15 O1          7.6480   -5.9607   -0.4619 O.3       1 <0>        -0.2218
     16 N4          9.0575   -6.0394   -0.3514 N.2       1 <0>        -0.3454
     17 C11         9.6369   -7.1802   -0.3566 C.2       1 <0>         0.2151
     18 C12         8.8146   -8.4430   -0.3503 C.3       1 <0>        -0.1633
     19 C13         7.6607   -8.5296    0.6507 C.3       1 <0>        -0.1495
     20 C14         8.9297   -9.3549    0.8730 C.3       1 <0>        -0.1614
     21 C15        11.1417   -7.2610   -0.3690 C.3       1 <0>        -0.1160
     22 C16        11.8895   -6.6971    0.8409 C.3       1 <0>        -0.1551
     23 C17        11.9186   -5.9487   -0.4933 C.3       1 <0>        -0.1599
     24 O2          5.0550   -5.2973    0.5849 O.3       1 <0>        -0.5430
     25 H2         -0.9301    1.8837   -1.3802 H         1 <0>         0.1551
     26 H3          1.1682    3.1616   -1.2647 H         1 <0>         0.1551
     27 H4          3.3198    1.9998   -1.0374 H         1 <0>         0.1504
     28 H5         -0.8979   -0.5698   -1.2794 H         1 <0>         0.1509
     29 H6          3.1495   -4.1178   -0.7944 H         1 <0>         0.4442
     30 H7          5.5011   -2.7486   -1.5507 H         1 <0>         0.1033
     31 H8          5.3541   -2.6742    0.2217 H         1 <0>         0.0964
     32 H9          5.3343   -5.2210   -1.4607 H         1 <0>         0.1263
     33 H10         7.5569   -4.0642   -1.2765 H         1 <0>         0.0707
     34 H11         7.4135   -4.1451    0.4958 H         1 <0>         0.0647
     35 H12         8.6758   -8.9186   -1.3212 H         1 <0>         0.1235
     36 H13         7.4963   -7.6732    1.3046 H         1 <0>         0.0939
     37 H14         6.7624   -9.0621    0.3383 H         1 <0>         0.0989
     38 H15         8.8663  -10.4303    0.7068 H         1 <0>         0.1036
     39 H16         9.6002   -9.0413    1.6731 H         1 <0>         0.0986
     40 H17        11.5612   -8.1421   -0.8545 H         1 <0>         0.1349
     41 H18        11.2930   -6.2678    1.6458 H         1 <0>         0.0959
     42 H19        12.8011   -7.2074    1.1517 H         1 <0>         0.1076
     43 H20        12.8494   -5.9667   -1.0602 H         1 <0>         0.1045
     44 H21        11.3413   -5.0270   -0.5660 H         1 <0>         0.1034
     45 H22         5.2626   -4.8529    1.4182 H         1 <0>         0.3833
     46 H23         4.3914   -0.6740   -0.8362 H         1 <0>         0.4564
@<TRIPOS>BOND
     1    1    6 ar
     2    1    2 ar
     3    1   25 1
     4    2    3 ar
     5    2   26 1
     6    3    4 ar
     7    3   27 1
     8    4   10 1
     9    4    5 ar
    10    5    6 ar
    11    5    7 1
    12    6   28 1
    13    7    8 1
    14    7    9 1
    15    9   10 2
    16    9   11 1
    17   10   46 1
    18   11   12 1
    19   11   29 1
    20   12   13 1
    21   12   30 1
    22   12   31 1
    23   13   14 1
    24   13   24 1
    25   13   32 1
    26   14   15 1
    27   14   33 1
    28   14   34 1
    29   15   16 1
    30   16   17 2
    31   17   18 1
    32   17   21 1
    33   18   20 1
    34   18   19 1
    35   18   35 1
    36   19   20 1
    37   19   36 1
    38   19   37 1
    39   20   38 1
    40   20   39 1
    41   21   23 1
    42   21   22 1
    43   21   40 1
    44   22   23 1
    45   22   41 1
    46   22   42 1
    47   23   43 1
    48   23   44 1
    49   24   45 1
@<TRIPOS>MOLECULE
CHEMBL43850
   45    48     0     0     0
SMALL
USER_CHARGES

@<TRIPOS>ATOM
      1 C1         -0.0052    1.3288    1.2343 C.ar      1 <0>        -0.1166
      2 C2          1.1818    2.0435    1.2990 C.ar      1 <0>        -0.1186
      3 C3          2.3934    1.3951    1.2139 C.ar      1 <0>        -0.0819
      4 C4          2.4282    0.0068    1.0616 C.ar      1 <0>         0.0834
      5 C5          1.2233   -0.7120    0.9971 C.ar      1 <0>         0.0367
      6 C6          0.0121   -0.0425    1.0840 C.ar      1 <0>        -0.1044
      7 N1          1.5763   -2.0432    0.8473 N.pl3     1 <0>        -0.6236
      8 H1          0.9678   -2.7948    0.7722 H         1 <0>         0.4174
      9 C7          2.9404   -2.1002    0.8250 C.2       1 <0>         0.5490
     10 N2          3.4385   -0.8955    0.9510 N.2       1 <0>        -0.5451
     11 N3          3.6830   -3.2544    0.6905 N.pl3     1 <0>        -0.7011
     12 C8          3.0084   -4.5481    0.5573 C.3       1 <0>         0.0952
     13 C9          4.0539   -5.6571    0.4241 C.3       1 <0>         0.1058
     14 C10         3.3494   -7.0081    0.2851 C.3       1 <0>         0.0454
     15 O1          4.3228   -8.0544    0.2777 O.3       1 <0>        -0.2176
     16 N4          3.7718   -9.3527    0.1524 N.2       1 <0>        -0.3437
     17 C11         4.5410  -10.3751    0.1332 C.2       1 <0>         0.2036
     18 C12         3.9513  -11.7619    0.1298 C.3       1 <0>        -0.1114
     19 C13         3.1031  -12.1659   -1.0778 C.3       1 <0>        -0.1573
     20 C14         2.4324  -11.8840    0.2681 C.3       1 <0>        -0.1614
     21 C15         6.0368  -10.1923    0.1140 C.3       1 <0>        -0.1602
     22 C16         6.6119   -9.1784   -0.8771 C.3       1 <0>        -0.1482
     23 C17         6.7919  -10.6774   -1.1252 C.3       1 <0>        -0.1641
     24 O2          4.8576   -5.4177   -0.7330 O.3       1 <0>        -0.5436
     25 H2         -0.9491    1.8487    1.3064 H         1 <0>         0.1288
     26 H3          1.1554    3.1168    1.4168 H         1 <0>         0.1290
     27 H4          3.3138    1.9578    1.2643 H         1 <0>         0.1286
     28 H5         -0.9155   -0.5933    1.0346 H         1 <0>         0.1199
     29 H6          4.6519   -3.2098    0.6840 H         1 <0>         0.4301
     30 H7          2.3954   -4.7307    1.4399 H         1 <0>         0.0761
     31 H8          2.3746   -4.5378   -0.3294 H         1 <0>         0.0694
     32 H9          4.6877   -5.6674    1.3109 H         1 <0>         0.1192
     33 H10         2.6688   -7.1511    1.1243 H         1 <0>         0.0679
     34 H11         2.7858   -7.0297   -0.6476 H         1 <0>         0.0614
     35 H12         4.5628  -12.5340    0.5966 H         1 <0>         0.1322
     36 H13         2.9717  -11.4286   -1.8698 H         1 <0>         0.0959
     37 H14         3.1567  -13.2040   -1.4058 H         1 <0>         0.1049
     38 H15         2.0448  -12.7366    0.8257 H         1 <0>         0.1023
     39 H16         1.8598  -10.9612    0.3616 H         1 <0>         0.1044
     40 H17         6.5351  -10.2924    1.0782 H         1 <0>         0.1214
     41 H18         5.9084   -8.6436   -1.5152 H         1 <0>         0.0956
     42 H19         7.4887   -8.6112   -0.5648 H         1 <0>         0.0994
     43 H20         7.7871  -11.0963   -0.9761 H         1 <0>         0.1009
     44 H21         6.2068  -11.1287   -1.9265 H         1 <0>         0.0967
     45 H22         4.3583   -5.3953   -1.5608 H         1 <0>         0.3781
@<TRIPOS>BOND
     1    1    6 ar
     2    1    2 ar
     3    1   25 1
     4    2    3 ar
     5    2   26 1
     6    3    4 ar
     7    3   27 1
     8    4   10 1
     9    4    5 ar
    10    5    6 ar
    11    5    7 1
    12    6   28 1
    13    7    8 1
    14    7    9 1
    15    9   10 2
    16    9   11 1
    17   11   12 1
    18   11   29 1
    19   12   13 1
    20   12   30 1
    21   12   31 1
    22   13   14 1
    23   13   24 1
    24   13   32 1
    25   14   15 1
    26   14   33 1
    27   14   34 1
    28   15   16 1
    29   16   17 2
    30   17   18 1
    31   17   21 1
    32   18   20 1
    33   18   19 1
    34   18   35 1
    35   19   20 1
    36   19   36 1
    37   19   37 1
    38   20   38 1
    39   20   39 1
    40   21   23 1
    41   21   22 1
    42   21   40 1
    43   22   23 1
    44   22   41 1
    45   22   42 1
    46   23   43 1
    47   23   44 1
    48   24   45 1
@<TRIPOS>MOLECULE
CHEMBL43061
   45    47     0     0     0
SMALL
USER_CHARGES

@<TRIPOS>ATOM
      1 C1          0.9630    1.4302    0.0604 C.3       1 <0>        -0.1433
      2 C2          0.9816   -0.0767    0.0655 C.ar      1 <0>         0.0775
      3 C3          1.1079   -0.7893   -1.1199 C.ar      1 <0>        -0.1748
      4 C4          1.1220   -2.1689   -1.0811 C.ar      1 <0>         0.1543
      5 N1          1.0171   -2.8150    0.0648 N.ar      1 <0>        -0.5077
      6 C5          0.8947   -2.1719    1.2156 C.ar      1 <0>         0.4484
      7 C6          0.8789   -0.7810    1.2513 C.ar      1 <0>        -0.2095
      8 N2          0.7866   -2.8925    2.3994 N.pl3     1 <0>        -0.6957
      9 C7          0.6509   -2.1875    3.6764 C.3       1 <0>         0.0825
     10 C8          0.5513   -3.2064    4.8134 C.3       1 <0>         0.0999
     11 C9          0.2848   -2.4758    6.1310 C.3       1 <0>         0.0457
     12 O1          0.0763   -3.4321    7.1722 O.3       1 <0>        -0.2221
     13 N3         -0.1800   -2.8563    8.4402 N.2       1 <0>        -0.3447
     14 C10        -0.3835   -3.6086    9.4551 C.2       1 <0>         0.2134
     15 C11        -0.4786   -5.1022    9.2789 C.3       1 <0>        -0.1602
     16 C12        -1.3653   -5.6250    8.1470 C.3       1 <0>        -0.1535
     17 C13        -1.8180   -5.7677    9.6015 C.3       1 <0>        -0.1607
     18 C14        -0.5282   -3.0008   10.8265 C.3       1 <0>        -0.1156
     19 C15        -1.7188   -2.0699   11.0647 C.3       1 <0>        -0.1555
     20 C16        -0.3058   -1.4928   10.9580 C.3       1 <0>        -0.1597
     21 O2          1.7782   -3.9326    4.9110 O.3       1 <0>        -0.5458
     22 H1          1.9817    1.8064    0.1553 H         1 <0>         0.1069
     23 H2          0.5304    1.7850   -0.8750 H         1 <0>         0.0963
     24 H3          0.3637    1.7890    0.8971 H         1 <0>         0.0927
     25 H4          1.1939   -0.2692   -2.0624 H         1 <0>         0.1807
     26 H5          1.2197   -2.7269   -2.0006 H         1 <0>         0.2081
     27 H6          0.7835   -0.2586    2.1917 H         1 <0>         0.1757
     28 H7          0.8011   -3.8622    2.3798 H         1 <0>         0.4241
     29 H8          1.5214   -1.5508    3.8342 H         1 <0>         0.0962
     30 H9         -0.2498   -1.5738    3.6586 H         1 <0>         0.1017
     31 H10        -0.2656   -3.8989    4.6102 H         1 <0>         0.1206
     32 H11         1.1419   -1.8497    6.3791 H         1 <0>         0.0660
     33 H12        -0.6030   -1.8520    6.0275 H         1 <0>         0.0690
     34 H13         0.4289   -5.6612    9.5069 H         1 <0>         0.1241
     35 H14        -1.8798   -4.8887    7.5296 H         1 <0>         0.0915
     36 H15        -1.0410   -6.5281    7.6299 H         1 <0>         0.0989
     37 H16        -1.7916   -6.7647   10.0413 H         1 <0>         0.1039
     38 H17        -2.6304   -5.1253    9.9410 H         1 <0>         0.0990
     39 H18        -0.2078   -3.6310   11.6561 H         1 <0>         0.1346
     40 H19        -2.3975   -1.8970   10.2294 H         1 <0>         0.0958
     41 H20        -2.1820   -2.0876   12.0512 H         1 <0>         0.1074
     42 H21         0.1605   -1.1308   11.8743 H         1 <0>         0.1044
     43 H22        -0.0549   -0.9402   10.0525 H         1 <0>         0.1037
     44 H23         2.5499   -3.3785    5.0912 H         1 <0>         0.3833
     45 H24         1.0298   -3.7849    0.0640 H         1 <0>         0.4425
@<TRIPOS>BOND
     1    1    2 1
     2    1   22 1
     3    1   23 1
     4    1   24 1
     5    2    7 ar
     6    2    3 ar
     7    3    4 ar
     8    3   25 1
     9    4    5 ar
    10    4   26 1
    11    5    6 ar
    12    5   45 1
    13    6    7 ar
    14    6    8 1
    15    7   27 1
    16    8    9 1
    17    8   28 1
    18    9   10 1
    19    9   29 1
    20    9   30 1
    21   10   11 1
    22   10   21 1
    23   10   31 1
    24   11   12 1
    25   11   32 1
    26   11   33 1
    27   12   13 1
    28   13   14 2
    29   14   15 1
    30   14   18 1
    31   15   17 1
    32   15   16 1
    33   15   34 1
    34   16   17 1
    35   16   35 1
    36   16   36 1
    37   17   37 1
    38   17   38 1
    39   18   20 1
    40   18   19 1
    41   18   39 1
    42   19   20 1
    43   19   40 1
    44   19   41 1
    45   20   42 1
    46   20   43 1
    47   21   44 1
@<TRIPOS>MOLECULE
CHEMBL43061
   45    47     0     0     0
SMALL
USER_CHARGES

@<TRIPOS>ATOM
      1 C1          0.9623    1.5175    0.0339 C.3       1 <0>        -0.1433
      2 C2          0.9835    0.0107    0.0254 C.ar      1 <0>         0.0775
      3 C3          1.1115   -0.6909   -1.1663 C.ar      1 <0>        -0.1749
      4 C4          1.1280   -2.0708   -1.1401 C.ar      1 <0>         0.1543
      5 N1          1.0240   -2.7274   -0.0000 N.ar      1 <0>        -0.5077
      6 C5          0.9001   -2.0949    1.1565 C.ar      1 <0>         0.4486
      7 C6          0.8818   -0.7045    1.2047 C.ar      1 <0>        -0.2096
      8 N2          0.7930   -2.8265    2.3336 N.pl3     1 <0>        -0.6953
      9 C7          0.6556   -2.1333    3.6169 C.3       1 <0>         0.0823
     10 C8          0.5575   -3.1626    4.7446 C.3       1 <0>         0.0998
     11 C9          0.4140   -2.4387    6.0848 C.3       1 <0>         0.0459
     12 O1          0.4395   -3.3939    7.1473 O.3       1 <0>        -0.2223
     13 N3          0.3129   -2.8240    8.4374 N.2       1 <0>        -0.3448
     14 C10         0.3214   -3.5759    9.4726 C.2       1 <0>         0.2135
     15 C11         0.3363   -5.0746    9.3153 C.3       1 <0>        -0.1627
     16 C12        -0.6499   -5.6904    8.3207 C.3       1 <0>        -0.1497
     17 C13        -0.8799   -5.8506    9.8248 C.3       1 <0>        -0.1616
     18 C14         0.3165   -2.9628   10.8493 C.3       1 <0>        -0.1157
     19 C15        -0.9073   -2.1368   11.2504 C.3       1 <0>        -0.1553
     20 C16         0.4196   -1.4393   10.9444 C.3       1 <0>        -0.1599
     21 O2         -0.5821   -3.9975    4.5297 O.3       1 <0>        -0.5459
     22 H1          1.9801    1.8947    0.1326 H         1 <0>         0.1070
     23 H2          0.5292    1.8801   -0.8984 H         1 <0>         0.0962
     24 H3          0.3620    1.8677    0.8736 H         1 <0>         0.0926
     25 H4          1.1968   -0.1621   -2.1042 H         1 <0>         0.1807
     26 H5          1.2270   -2.6203   -2.0646 H         1 <0>         0.2081
     27 H6          0.7851   -0.1908    2.1498 H         1 <0>         0.1757
     28 H7          0.8093   -3.7959    2.3053 H         1 <0>         0.4246
     29 H8          1.5249   -1.4965    3.7808 H         1 <0>         0.1022
     30 H9         -0.2462   -1.5210    3.6044 H         1 <0>         0.0954
     31 H10         1.4593   -3.7749    4.7571 H         1 <0>         0.1217
     32 H11         1.2380   -1.7359    6.2083 H         1 <0>         0.0705
     33 H12        -0.5317   -1.8971    6.1058 H         1 <0>         0.0642
     34 H13         1.3131   -5.5481    9.4146 H         1 <0>         0.1230
     35 H14        -1.3095   -5.0115    7.7802 H         1 <0>         0.0939
     36 H15        -0.3220   -6.5691    7.7653 H         1 <0>         0.0984
     37 H16        -0.7034   -6.8346   10.2590 H         1 <0>         0.1033
     38 H17        -1.6909   -5.2770   10.2738 H         1 <0>         0.0986
     39 H18         0.8049   -3.5499   11.6271 H         1 <0>         0.1345
     40 H19        -1.7089   -2.0369   10.5187 H         1 <0>         0.0959
     41 H20        -1.2244   -2.1805   12.2924 H         1 <0>         0.1074
     42 H21         0.9755   -1.0240   11.7851 H         1 <0>         0.1043
     43 H22         0.4910   -0.8804   10.0114 H         1 <0>         0.1036
     44 H23        -1.4219   -3.5185    4.5068 H         1 <0>         0.3823
     45 H24         1.0385   -3.6972   -0.0097 H         1 <0>         0.4425
@<TRIPOS>BOND
     1    1    2 1
     2    1   22 1
     3    1   23 1
     4    1   24 1
     5    2    7 ar
     6    2    3 ar
     7    3    4 ar
     8    3   25 1
     9    4    5 ar
    10    4   26 1
    11    5    6 ar
    12    5   45 1
    13    6    7 ar
    14    6    8 1
    15    7   27 1
    16    8    9 1
    17    8   28 1
    18    9   10 1
    19    9   29 1
    20    9   30 1
    21   10   11 1
    22   10   21 1
    23   10   31 1
    24   11   12 1
    25   11   32 1
    26   11   33 1
    27   12   13 1
    28   13   14 2
    29   14   15 1
    30   14   18 1
    31   15   17 1
    32   15   16 1
    33   15   34 1
    34   16   17 1
    35   16   35 1
    36   16   36 1
    37   17   37 1
    38   17   38 1
    39   18   20 1
    40   18   19 1
    41   18   39 1
    42   19   20 1
    43   19   40 1
    44   19   41 1
    45   20   42 1
    46   20   43 1
    47   21   44 1
@<TRIPOS>MOLECULE
CHEMBL1221804
   49    51     0     0     0
SMALL
USER_CHARGES

@<TRIPOS>ATOM
      1 C1         -0.0178    1.4608    0.0101 C.3       1 <0>         0.0901
      2 N1          0.0021   -0.0041    0.0020 N.pl3     1 <0>        -0.6342
      3 C2          0.0241   -0.7433    1.2666 C.3       1 <0>         0.1299
      4 C3         -1.4105   -1.0203    1.7205 C.3       1 <0>        -0.1738
      5 C4         -1.3875   -1.7923    3.0413 C.3       1 <0>        -0.0075
      6 N2         -2.7649   -2.0583    3.4771 N.4       1 <0>        -0.5046
      7 C5         -2.7428   -2.7995    4.7452 C.3       1 <0>        -0.0452
      8 C6         -4.1774   -3.0765    5.1991 C.3       1 <0>         0.1622
      9 H1         -4.6904   -3.6684    4.4411 H         1 <0>         0.1155
     10 C7         -4.1547   -3.8369    6.5000 C.ar      1 <0>        -0.2347
     11 C8         -4.2627   -3.1602    7.7027 C.ar      1 <0>        -0.0378
     12 C9         -4.2400   -3.8789    8.8852 C.ar      1 <0>        -0.2398
     13 C10        -4.1122   -5.2520    8.8843 C.ar      1 <0>         0.3004
     14 C11        -4.0006   -5.9651    7.6746 C.ar      1 <0>        -0.0290
     15 C12        -4.0325   -5.2060    6.4972 C.ar      1 <0>        -0.0475
     16 S1         -3.8789   -6.4320    5.2207 S.3       1 <0>        -0.1197
     17 C13        -3.7876   -7.8714    6.2731 C.2       1 <0>         0.5381
     18 O1         -3.6726   -9.0411    5.9564 O.2       1 <0>        -0.4753
     19 N3         -3.8664   -7.3351    7.5069 N.am      1 <0>        -0.6198
     20 H2         -3.8412   -7.9140    8.2848 H         1 <0>         0.4156
     21 O2         -4.0931   -5.9256   10.0653 O.3       1 <0>        -0.6858
     22 O3         -4.8663   -1.8381    5.3832 O.3       1 <0>        -0.5548
     23 C14        -0.0000   -0.6959   -1.2114 C.ar      1 <0>         0.2048
     24 C15         0.0130   -2.0849   -1.2208 C.ar      1 <0>        -0.1987
     25 C16         0.0104   -2.7658   -2.4223 C.ar      1 <0>        -0.0731
     26 C17        -0.0046   -2.0664   -3.6151 C.ar      1 <0>        -0.1707
     27 C18        -0.0176   -0.6836   -3.6094 C.ar      1 <0>        -0.0711
     28 C19        -0.0209    0.0035   -2.4114 C.ar      1 <0>        -0.1923
     29 H3          1.0048    1.8381    0.0023 H         1 <0>         0.0526
     30 H4         -0.5450    1.8219   -0.8730 H         1 <0>         0.0721
     31 H5         -0.5280    1.8123    0.9069 H         1 <0>         0.0659
     32 H6          0.5496   -1.6879    1.1262 H         1 <0>         0.0862
     33 H7          0.5371   -0.1514    2.0246 H         1 <0>         0.0844
     34 H8         -1.9359   -0.0757    1.8610 H         1 <0>         0.0883
     35 H9         -1.9235   -1.6122    0.9626 H         1 <0>         0.0908
     36 H10        -0.8620   -2.7369    2.9008 H         1 <0>         0.1323
     37 H11        -0.8745   -1.2004    3.7993 H         1 <0>         0.1316
     38 H12        -3.2513   -1.1838    3.6071 H         1 <0>         0.4284
     39 H13        -2.2174   -3.7441    4.6047 H         1 <0>         0.1409
     40 H14        -2.2298   -2.2076    5.5031 H         1 <0>         0.1362
     41 H15        -4.3630   -2.0850    7.7180 H         1 <0>         0.1129
     42 H16        -4.3236   -3.3548    9.8258 H         1 <0>         0.1174
     43 H17        -4.4643   -1.2591    6.0452 H         1 <0>         0.3835
     44 H18         0.0255   -2.6317   -0.2895 H         1 <0>         0.1183
     45 H19         0.0205   -3.8457   -2.4303 H         1 <0>         0.1227
     46 H20        -0.0059   -2.6013   -4.5533 H         1 <0>         0.1209
     47 H21        -0.0293   -0.1404   -4.5428 H         1 <0>         0.1233
     48 H22        -0.0356    1.0834   -2.4076 H         1 <0>         0.1229
     49 H23        -3.2398   -2.6062    2.7754 H         1 <0>         0.4271
@<TRIPOS>BOND
     1    1    2 1
     2    1   29 1
     3    1   30 1
     4    1   31 1
     5    2    3 1
     6    2   23 1
     7    3    4 1
     8    3   32 1
     9    3   33 1
    10    4    5 1
    11    4   34 1
    12    4   35 1
    13    5    6 1
    14    5   36 1
    15    5   37 1
    16    6    7 1
    17    6   38 1
    18    6   49 1
    19    7    8 1
    20    7   39 1
    21    7   40 1
    22    8    9 1
    23    8   10 1
    24    8   22 1
    25   10   15 ar
    26   10   11 ar
    27   11   12 ar
    28   11   41 1
    29   12   13 ar
    30   12   42 1
    31   13   14 ar
    32   13   21 1
    33   14   19 1
    34   14   15 ar
    35   15   16 1
    36   16   17 1
    37   17   18 2
    38   17   19 am
    39   19   20 1
    40   22   43 1
    41   23   28 ar
    42   23   24 ar
    43   24   25 ar
    44   24   44 1
    45   25   26 ar
    46   25   45 1
    47   26   27 ar
    48   26   46 1
    49   27   28 ar
    50   27   47 1
    51   28   48 1
@<TRIPOS>MOLECULE
CHEMBL43111
   42    44     0     0     0
SMALL
USER_CHARGES

@<TRIPOS>ATOM
      1 C1         -0.1461    1.3520   -0.9727 C.ar      1 <0>        -0.2044
      2 C2          1.0397    2.0442   -1.1003 C.ar      1 <0>         0.1653
      3 N1          2.1965    1.4086   -1.1110 N.ar      1 <0>        -0.4947
      4 C3          2.2722    0.0954   -1.0014 C.ar      1 <0>         0.1697
      5 C4          1.1326   -0.6699   -0.8701 C.ar      1 <0>        -0.2136
      6 C5         -0.1104   -0.0373   -0.8542 C.ar      1 <0>         0.3157
      7 N2         -1.2843   -0.7731   -0.7231 N.pl3     1 <0>        -0.6757
      8 C6         -1.2247   -2.2317   -0.5999 C.3       1 <0>         0.0697
      9 C7         -2.6429   -2.7909   -0.4701 C.3       1 <0>         0.0997
     10 C8         -2.5755   -4.2983   -0.2168 C.3       1 <0>         0.0456
     11 O1         -3.8921   -4.8008    0.0201 O.3       1 <0>        -0.2215
     12 N3         -3.9410   -6.1943    0.2669 N.2       1 <0>        -0.3452
     13 C9         -5.0636   -6.7649    0.4935 C.2       1 <0>         0.2126
     14 C10        -6.3163   -5.9377    0.6254 C.3       1 <0>        -0.1603
     15 C11        -6.2534   -4.6983    1.5204 C.3       1 <0>        -0.1532
     16 C12        -7.0230   -5.9373    1.9825 C.3       1 <0>        -0.1609
     17 C13        -5.1331   -8.2643    0.6283 C.3       1 <0>        -0.1152
     18 C14        -4.3795   -8.9042    1.7960 C.3       1 <0>        -0.1556
     19 C15        -3.8506   -9.0571    0.3686 C.3       1 <0>        -0.1600
     20 O2         -3.3652   -2.5427   -1.6779 O.3       1 <0>        -0.5450
     21 H1         -1.0889    1.8785   -0.9602 H         1 <0>         0.1782
     22 H2          1.0216    3.1200   -1.1930 H         1 <0>         0.2053
     23 H3          3.2389   -0.3859   -1.0150 H         1 <0>         0.2048
     24 H4          1.2016   -1.7440   -0.7808 H         1 <0>         0.1755
     25 H5         -2.1420   -0.3202   -0.7132 H         1 <0>         0.4271
     26 H6         -0.7481   -2.6519   -1.4856 H         1 <0>         0.0928
     27 H7         -0.6466   -2.4983    0.2849 H         1 <0>         0.0983
     28 H8         -3.1503   -2.3048    0.3631 H         1 <0>         0.1200
     29 H9         -2.1486   -4.7945   -1.0883 H         1 <0>         0.0647
     30 H10        -1.9502   -4.4927    0.6546 H         1 <0>         0.0677
     31 H11        -6.9400   -5.8834   -0.2668 H         1 <0>         0.1240
     32 H12        -5.3060   -4.4813    2.0137 H         1 <0>         0.0915
     33 H13        -6.8358   -3.8283    1.2169 H         1 <0>         0.0993
     34 H14        -8.1116   -5.8825    1.9830 H         1 <0>         0.1037
     35 H15        -6.5818   -6.5355    2.7798 H         1 <0>         0.0987
     36 H16        -6.0763   -8.7202    0.3273 H         1 <0>         0.1345
     37 H17        -3.8336   -8.2408    2.4667 H         1 <0>         0.0957
     38 H18        -4.8270   -9.7813    2.2636 H         1 <0>         0.1072
     39 H19        -3.9500  -10.0348   -0.1030 H         1 <0>         0.1043
     40 H20        -2.9566   -8.4943    0.1001 H         1 <0>         0.1035
     41 H21        -2.9700   -2.9465   -2.4626 H         1 <0>         0.3822
     42 H22         3.0148    1.9215   -1.2024 H         1 <0>         0.4481
@<TRIPOS>BOND
     1    1    6 ar
     2    1    2 ar
     3    1   21 1
     4    2    3 ar
     5    2   22 1
     6    3    4 ar
     7    3   42 1
     8    4    5 ar
     9    4   23 1
    10    5    6 ar
    11    5   24 1
    12    6    7 1
    13    7    8 1
    14    7   25 1
    15    8    9 1
    16    8   26 1
    17    8   27 1
    18    9   10 1
    19    9   20 1
    20    9   28 1
    21   10   11 1
    22   10   29 1
    23   10   30 1
    24   11   12 1
    25   12   13 2
    26   13   14 1
    27   13   17 1
    28   14   16 1
    29   14   15 1
    30   14   31 1
    31   15   16 1
    32   15   32 1
    33   15   33 1
    34   16   34 1
    35   16   35 1
    36   17   19 1
    37   17   18 1
    38   17   36 1
    39   18   19 1
    40   18   37 1
    41   18   38 1
    42   19   39 1
    43   19   40 1
    44   20   41 1
@<TRIPOS>MOLECULE
CHEMBL43111
   42    44     0     0     0
SMALL
USER_CHARGES

@<TRIPOS>ATOM
      1 C1         -0.0382    1.3704   -0.9822 C.ar      1 <0>        -0.2045
      2 C2          1.1539    2.0517   -1.1089 C.ar      1 <0>         0.1653
      3 N1          2.3050    1.4057   -1.1172 N.ar      1 <0>        -0.4948
      4 C3          2.3686    0.0920   -1.0057 C.ar      1 <0>         0.1696
      5 C4          1.2220   -0.6627   -0.8751 C.ar      1 <0>        -0.2137
      6 C5         -0.0152   -0.0189   -0.8618 C.ar      1 <0>         0.3158
      7 N2         -1.1959   -0.7439   -0.7314 N.pl3     1 <0>        -0.6753
      8 C6         -1.1497   -2.2029   -0.6062 C.3       1 <0>         0.0695
      9 C7         -2.5731   -2.7491   -0.4777 C.3       1 <0>         0.0995
     10 C8         -2.5248   -4.2727   -0.3470 C.3       1 <0>         0.0458
     11 O1         -3.8557   -4.7930   -0.3441 O.3       1 <0>        -0.2216
     12 N3         -3.9228   -6.2025   -0.2266 N.2       1 <0>        -0.3454
     13 C9         -5.0595   -6.7899   -0.2120 C.2       1 <0>         0.2127
     14 C10        -6.3278   -5.9763   -0.1897 C.3       1 <0>        -0.1626
     15 C11        -6.4072   -4.8188    0.8076 C.3       1 <0>        -0.1493
     16 C12        -7.2201   -6.0925    1.0477 C.3       1 <0>        -0.1618
     17 C13        -5.1299   -8.2952   -0.2170 C.3       1 <0>        -0.1152
     18 C14        -4.5425   -9.0339    0.9872 C.3       1 <0>        -0.1555
     19 C15        -3.8143   -9.0635   -0.3581 C.3       1 <0>        -0.1601
     20 O2         -3.1946   -2.1910    0.6818 O.3       1 <0>        -0.5451
     21 H1         -0.9763    1.9055   -0.9717 H         1 <0>         0.1782
     22 H2          1.1457    3.1276   -1.2030 H         1 <0>         0.2053
     23 H3          3.3310   -0.3980   -1.0174 H         1 <0>         0.2047
     24 H4          1.2811   -1.7373   -0.7843 H         1 <0>         0.1755
     25 H5         -2.0495   -0.2833   -0.7233 H         1 <0>         0.4276
     26 H6         -0.6756   -2.6285   -1.4906 H         1 <0>         0.0988
     27 H7         -0.5753   -2.4735    0.2797 H         1 <0>         0.0920
     28 H8         -3.1475   -2.4784   -1.3637 H         1 <0>         0.1210
     29 H9         -1.9725   -4.6922   -1.1880 H         1 <0>         0.0692
     30 H10        -2.0274   -4.5419    0.5848 H         1 <0>         0.0630
     31 H11        -6.8191   -5.8449   -1.1539 H         1 <0>         0.1230
     32 H12        -5.5420   -4.6457    1.4477 H         1 <0>         0.0940
     33 H13        -6.9506   -3.9255    0.4997 H         1 <0>         0.0987
     34 H14        -8.2983   -6.0373    0.8977 H         1 <0>         0.1032
     35 H15        -6.8897   -6.7575    1.8457 H         1 <0>         0.0983
     36 H16        -6.0154   -8.7229   -0.6872 H         1 <0>         0.1344
     37 H17        -4.1051   -8.4311    1.7831 H         1 <0>         0.0958
     38 H18        -5.0416   -9.9477    1.3096 H         1 <0>         0.1072
     39 H19        -3.8344   -9.9968   -0.9208 H         1 <0>         0.1042
     40 H20        -2.8979   -8.4802   -0.4473 H         1 <0>         0.1035
     41 H21        -2.7360   -2.3920    1.5090 H         1 <0>         0.3813
     42 H22         3.1280    1.9111   -1.2081 H         1 <0>         0.4480
@<TRIPOS>BOND
     1    1    6 ar
     2    1    2 ar
     3    1   21 1
     4    2    3 ar
     5    2   22 1
     6    3    4 ar
     7    3   42 1
     8    4    5 ar
     9    4   23 1
    10    5    6 ar
    11    5   24 1
    12    6    7 1
    13    7    8 1
    14    7   25 1
    15    8    9 1
    16    8   26 1
    17    8   27 1
    18    9   10 1
    19    9   20 1
    20    9   28 1
    21   10   11 1
    22   10   29 1
    23   10   30 1
    24   11   12 1
    25   12   13 2
    26   13   14 1
    27   13   17 1
    28   14   16 1
    29   14   15 1
    30   14   31 1
    31   15   16 1
    32   15   32 1
    33   15   33 1
    34   16   34 1
    35   16   35 1
    36   17   19 1
    37   17   18 1
    38   17   36 1
    39   18   19 1
    40   18   37 1
    41   18   38 1
    42   19   39 1
    43   19   40 1
    44   20   41 1
@<TRIPOS>MOLECULE
CHEMBL127422
   61    64     0     0     0
SMALL
USER_CHARGES

@<TRIPOS>ATOM
      1 C1          1.5083    1.5528    4.0028 C.ar      1 <0>        -0.1173
      2 C2          0.6856    0.5473    3.4985 C.ar      1 <0>        -0.1063
      3 C3          1.2104   -0.6193    3.0342 C.ar      1 <0>        -0.1141
      4 C4          2.6029   -0.8161    3.0622 C.ar      1 <0>        -0.0349
      5 C5          3.1765   -2.0065    2.5909 C.ar      1 <0>        -0.1397
      6 C6          4.5523   -2.1634    2.6345 C.ar      1 <0>         0.1115
      7 C7          5.3716   -1.1407    3.1467 C.ar      1 <0>        -0.1264
      8 C8          4.8335    0.0172    3.6067 C.ar      1 <0>        -0.0828
      9 C9          3.4397    0.2072    3.5755 C.ar      1 <0>        -0.0620
     10 C10         2.8602    1.3974    4.0456 C.ar      1 <0>        -0.1012
     11 N1          5.1186   -3.3222    2.1763 N.2       1 <0>        -0.5682
     12 C11         5.3887   -3.4604    0.8995 C.2       1 <0>         0.6471
     13 N2          5.0127   -2.4819    0.0063 N.pl3     1 <0>        -0.6176
     14 C12         5.3829   -2.5731   -1.2940 C.1       1 <0>         0.3881
     15 N3          5.6932   -2.6495   -2.3841 N.1       1 <0>        -0.3763
     16 N4          6.0465   -4.5810    0.4540 N.pl3     1 <0>        -0.6534
     17 C13         6.3243   -5.6270    1.3395 C.ar      1 <0>         0.1880
     18 C14         5.4744   -5.8777    2.4091 C.ar      1 <0>        -0.1096
     19 C15         5.7517   -6.9115    3.2818 C.ar      1 <0>        -0.0857
     20 C16         6.8743   -7.6964    3.0920 C.ar      1 <0>        -0.1290
     21 C17         7.7227   -7.4492    2.0284 C.ar      1 <0>        -0.0844
     22 C18         7.4477   -6.4211    1.1481 C.ar      1 <0>        -0.1457
     23 C19         7.1739   -8.8233    4.0466 C.3       1 <0>        -0.0970
     24 C20         6.5061  -10.1060    3.5471 C.3       1 <0>        -0.0075
     25 N5          6.7982  -11.2046    4.4776 N.4       1 <0>        -0.5057
     26 C21         6.1569  -12.4361    3.9980 C.3       1 <0>        -0.0424
     27 C22         6.4612  -13.5803    4.9672 C.3       1 <0>         0.1414
     28 H1          6.0757  -13.3312    5.9559 H         1 <0>         0.1339
     29 C23         5.8034  -14.8437    4.4752 C.ar      1 <0>        -0.2003
     30 C24         4.5530  -15.2138    4.9469 C.ar      1 <0>        -0.0549
     31 C25         3.9864  -16.3842    4.4663 C.ar      1 <0>        -0.1642
     32 C26         4.6817  -17.1380    3.5395 C.ar      1 <0>         0.1223
     33 N6          5.8694  -16.7554    3.1135 N.ar      1 <0>        -0.4750
     34 C27         6.4361  -15.6451    3.5441 C.ar      1 <0>         0.1171
     35 O1          7.8745  -13.7774    5.0428 O.3       1 <0>        -0.5460
     36 H2          1.0671    2.4711    4.3611 H         1 <0>         0.1257
     37 H3         -0.3839    0.6959    3.4763 H         1 <0>         0.1253
     38 H4          0.5610   -1.3903    2.6464 H         1 <0>         0.1265
     39 H5          2.5508   -2.7941    2.1977 H         1 <0>         0.1273
     40 H6          6.4424   -1.2790    3.1744 H         1 <0>         0.1247
     41 H7          5.4754    0.7929    3.9973 H         1 <0>         0.1316
     42 H8          3.4845    2.1860    4.4390 H         1 <0>         0.1289
     43 H9          4.4828   -1.7275    0.3080 H         1 <0>         0.4477
     44 H10         6.3183   -4.6467   -0.4748 H         1 <0>         0.4214
     45 H11         4.5979   -5.2646    2.5584 H         1 <0>         0.1530
     46 H12         5.0912   -7.1070    4.1137 H         1 <0>         0.1271
     47 H13         8.5988   -8.0638    1.8831 H         1 <0>         0.1282
     48 H14         8.1081   -6.2316    0.3149 H         1 <0>         0.1308
     49 H15         8.2520   -8.9737    4.1042 H         1 <0>         0.0954
     50 H16         6.7885   -8.5742    5.0352 H         1 <0>         0.0957
     51 H17         5.4280   -9.9557    3.4894 H         1 <0>         0.1335
     52 H18         6.8916  -10.3551    2.5584 H         1 <0>         0.1330
     53 H19         7.7961  -11.3438    4.5310 H         1 <0>         0.4324
     54 H20         5.0789  -12.2858    3.9404 H         1 <0>         0.1445
     55 H21         6.5424  -12.6852    3.0094 H         1 <0>         0.1374
     56 H22         4.0331  -14.6049    5.6717 H         1 <0>         0.1412
     57 H23         3.0141  -16.7031    4.8119 H         1 <0>         0.1472
     58 H24         4.2472  -18.0511    3.1602 H         1 <0>         0.1671
     59 H25         7.4080  -15.3613    3.1682 H         1 <0>         0.1530
     60 H26         8.2860  -14.0027    4.1972 H         1 <0>         0.3899
     61 H27         6.4414  -10.9740    5.3928 H         1 <0>         0.4297
@<TRIPOS>BOND
     1    1   10 ar
     2    1    2 ar
     3    1   36 1
     4    2    3 ar
     5    2   37 1
     6    3    4 ar
     7    3   38 1
     8    4    9 ar
     9    4    5 ar
    10    5    6 ar
    11    5   39 1
    12    6    7 ar
    13    6   11 1
    14    7    8 ar
    15    7   40 1
    16    8    9 ar
    17    8   41 1
    18    9   10 ar
    19   10   42 1
    20   11   12 2
    21   12   13 1
    22   12   16 1
    23   13   14 1
    24   13   43 1
    25   14   15 3
    26   16   17 1
    27   16   44 1
    28   17   22 ar
    29   17   18 ar
    30   18   19 ar
    31   18   45 1
    32   19   20 ar
    33   19   46 1
    34   20   21 ar
    35   20   23 1
    36   21   22 ar
    37   21   47 1
    38   22   48 1
    39   23   24 1
    40   23   49 1
    41   23   50 1
    42   24   25 1
    43   24   51 1
    44   24   52 1
    45   25   26 1
    46   25   53 1
    47   25   61 1
    48   26   27 1
    49   26   54 1
    50   26   55 1
    51   27   28 1
    52   27   29 1
    53   27   35 1
    54   29   34 ar
    55   29   30 ar
    56   30   31 ar
    57   30   56 1
    58   31   32 ar
    59   31   57 1
    60   32   33 ar
    61   32   58 1
    62   33   34 ar
    63   34   59 1
    64   35   60 1
@<TRIPOS>MOLECULE
CHEMBL1085837
   72    74     0     0     0
SMALL
USER_CHARGES

@<TRIPOS>ATOM
      1 C1         -0.0164    1.3567    0.0095 C.ar      1 <0>        -0.1176
      2 C2          1.1685    2.0906    0.0021 C.ar      1 <0>        -0.1096
      3 C3          2.3785    1.4679   -0.0132 C.ar      1 <0>        -0.1154
      4 C4          2.4378    0.0637   -0.0214 C.ar      1 <0>        -0.0429
      5 C5          1.2328   -0.6827   -0.0134 C.ar      1 <0>        -0.0524
      6 C6          0.0021   -0.0041    0.0020 C.ar      1 <0>        -0.1024
      7 C7          1.2920   -2.0865   -0.0210 C.ar      1 <0>        -0.1046
      8 C8          2.5022   -2.7094   -0.0359 C.ar      1 <0>        -0.1180
      9 C9          3.6867   -1.9757   -0.0433 C.ar      1 <0>        -0.0913
     10 C10         3.6681   -0.6146   -0.0367 C.ar      1 <0>        -0.0826
     11 C11         4.9603    0.1606   -0.0459 C.3       1 <0>         0.1047
     12 O1          6.0618   -0.7496   -0.0611 O.3       1 <0>        -0.3767
     13 C12         7.3414   -0.1136   -0.0708 C.3       1 <0>         0.0632
     14 C13         8.4401   -1.1783   -0.0867 C.3       1 <0>         0.0655
     15 O2          8.3738   -1.9129   -1.3106 O.3       1 <0>        -0.3804
     16 C14         9.3625   -2.9380   -1.4275 C.3       1 <0>         0.0603
     17 C15         9.1978   -3.6549   -2.7691 C.3       1 <0>        -0.1200
     18 C16        10.2564   -4.7524   -2.8943 C.3       1 <0>        -0.1181
     19 C17        10.0916   -5.4693   -4.2359 C.3       1 <0>        -0.1169
     20 C18        11.1503   -6.5668   -4.3610 C.3       1 <0>        -0.1500
     21 C19        10.9855   -7.2837   -5.7026 C.3       1 <0>        -0.0106
     22 N1         12.0019   -8.3374   -5.8228 N.4       1 <0>        -0.5057
     23 C20        11.8437   -9.0257   -7.1109 C.3       1 <0>        -0.0427
     24 C21        12.9024  -10.1233   -7.2360 C.3       1 <0>         0.1378
     25 H1         12.7806  -10.8399   -6.4238 H         1 <0>         0.1326
     26 C22        12.7401  -10.8294   -8.5574 C.ar      1 <0>        -0.1555
     27 C23        13.3377  -10.3144   -9.6932 C.ar      1 <0>        -0.0897
     28 C24        13.1901  -10.9594  -10.9056 C.ar      1 <0>        -0.1374
     29 C25        12.4418  -12.1253  -10.9832 C.ar      1 <0>         0.1335
     30 C26        11.8438  -12.6401   -9.8425 C.ar      1 <0>        -0.1102
     31 C27        11.9988  -11.9939   -8.6311 C.ar      1 <0>        -0.0622
     32 C28        11.0304  -13.9062   -9.9232 C.3       1 <0>         0.1174
     33 O3         10.5227  -14.2296   -8.6272 O.3       1 <0>        -0.5756
     34 O4         12.2948  -12.7616  -12.1751 O.3       1 <0>        -0.4942
     35 O5         14.2046   -9.5393   -7.1648 O.3       1 <0>        -0.5481
     36 H2         -0.9634    1.8756    0.0259 H         1 <0>         0.1252
     37 H3          1.1258    3.1698    0.0084 H         1 <0>         0.1247
     38 H4          3.2883    2.0497   -0.0195 H         1 <0>         0.1248
     39 H5         -0.9241   -0.5595    0.0082 H         1 <0>         0.1287
     40 H6          0.3820   -2.6682   -0.0147 H         1 <0>         0.1279
     41 H7          2.5450   -3.7886   -0.0417 H         1 <0>         0.1234
     42 H8          4.6338   -2.4947   -0.0548 H         1 <0>         0.1326
     43 H9          4.9988    0.7923   -0.9334 H         1 <0>         0.0653
     44 H10         5.0164    0.7840    0.8465 H         1 <0>         0.0652
     45 H11         7.4292    0.5125   -0.9588 H         1 <0>         0.0603
     46 H12         7.4469    0.5041    0.8211 H         1 <0>         0.0686
     47 H13         9.4143   -0.6963   -0.0046 H         1 <0>         0.0663
     48 H14         8.2991   -1.8584    0.7533 H         1 <0>         0.0598
     49 H15        10.3559   -2.4925   -1.3732 H         1 <0>         0.0476
     50 H16         9.2407   -3.6546   -0.6153 H         1 <0>         0.0490
     51 H17         8.2044   -4.1003   -2.8235 H         1 <0>         0.0740
     52 H18         9.3196   -2.9382   -3.5814 H         1 <0>         0.0725
     53 H19        11.2497   -4.3069   -2.8399 H         1 <0>         0.0684
     54 H20        10.1346   -5.4690   -2.0820 H         1 <0>         0.0689
     55 H21         9.0983   -5.9147   -4.2902 H         1 <0>         0.0762
     56 H22        10.2134   -4.7527   -5.0481 H         1 <0>         0.0756
     57 H23        12.1436   -6.1214   -4.3067 H         1 <0>         0.0882
     58 H24        11.0285   -7.2834   -3.5488 H         1 <0>         0.0886
     59 H25         9.9922   -7.7291   -5.7570 H         1 <0>         0.1326
     60 H26        11.1073   -6.5671   -6.5148 H         1 <0>         0.1315
     61 H27        12.9215   -7.9251   -5.7724 H         1 <0>         0.4314
     62 H28        10.8504   -9.4712   -7.1652 H         1 <0>         0.1450
     63 H29        11.9655   -8.3091   -7.9231 H         1 <0>         0.1366
     64 H30        13.9200   -9.4069   -9.6322 H         1 <0>         0.1275
     65 H31        13.6564  -10.5565  -11.7925 H         1 <0>         0.1403
     66 H32        11.5367  -12.3965   -7.7418 H         1 <0>         0.1419
     67 H33        10.1991  -13.7606  -10.6131 H         1 <0>         0.0706
     68 H34        11.6605  -14.7207  -10.2803 H         1 <0>         0.0653
     69 H35         9.9881  -15.0351   -8.6039 H         1 <0>         0.3932
     70 H36        12.9776  -13.4223  -12.3551 H         1 <0>         0.4011
     71 H37        14.3832   -8.8902   -7.8589 H         1 <0>         0.3878
     72 H38        11.8892   -9.0008   -5.0709 H         1 <0>         0.4294
@<TRIPOS>BOND
     1    1    6 ar
     2    1    2 ar
     3    1   36 1
     4    2    3 ar
     5    2   37 1
     6    3    4 ar
     7    3   38 1
     8    4   10 ar
     9    4    5 ar
    10    5    6 ar
    11    5    7 ar
    12    6   39 1
    13    7    8 ar
    14    7   40 1
    15    8    9 ar
    16    8   41 1
    17    9   10 ar
    18    9   42 1
    19   10   11 1
    20   11   12 1
    21   11   43 1
    22   11   44 1
    23   12   13 1
    24   13   14 1
    25   13   45 1
    26   13   46 1
    27   14   15 1
    28   14   47 1
    29   14   48 1
    30   15   16 1
    31   16   17 1
    32   16   49 1
    33   16   50 1
    34   17   18 1
    35   17   51 1
    36   17   52 1
    37   18   19 1
    38   18   53 1
    39   18   54 1
    40   19   20 1
    41   19   55 1
    42   19   56 1
    43   20   21 1
    44   20   57 1
    45   20   58 1
    46   21   22 1
    47   21   59 1
    48   21   60 1
    49   22   23 1
    50   22   61 1
    51   22   72 1
    52   23   24 1
    53   23   62 1
    54   23   63 1
    55   24   25 1
    56   24   26 1
    57   24   35 1
    58   26   31 ar
    59   26   27 ar
    60   27   28 ar
    61   27   64 1
    62   28   29 ar
    63   28   65 1
    64   29   30 ar
    65   29   34 1
    66   30   31 ar
    67   30   32 1
    68   31   66 1
    69   32   33 1
    70   32   67 1
    71   32   68 1
    72   33   69 1
    73   34   70 1
    74   35   71 1
@<TRIPOS>MOLECULE
CHEMBL59270
   73    77     0     0     0
SMALL
USER_CHARGES

@<TRIPOS>ATOM
      1 C1         -0.0167    1.3781    0.0096 C.ar      1 <0>        -0.1260
      2 C2          1.1709    2.0855    0.0021 C.ar      1 <0>        -0.1191
      3 C3          2.3773    1.4107   -0.0130 C.ar      1 <0>        -0.1184
      4 C4          2.3960    0.0285   -0.0201 C.ar      1 <0>        -0.0806
      5 C5          1.2084   -0.6789   -0.0117 C.ar      1 <0>        -0.1154
      6 C6          0.0021   -0.0041    0.0020 C.ar      1 <0>        -0.1183
      7 C7          3.7112   -0.7071   -0.0376 C.3       1 <0>        -0.0732
      8 C8          4.1714   -0.9633    1.3989 C.3       1 <0>        -0.0403
      9 C9          5.4865   -1.6989    1.3815 C.2       1 <0>         0.0615
     10 C10         6.5570   -1.1960    2.0520 C.2       1 <0>        -0.2022
     11 S1          7.7882   -2.4416    1.6894 S.3       1 <0>         0.0149
     12 C11         6.7455   -3.4930    0.6873 C.2       1 <0>         0.1582
     13 N1          5.5989   -2.8287    0.7235 N.2       1 <0>        -0.4883
     14 C12         7.0726   -4.7641    0.0062 C.ar      1 <0>         0.0187
     15 C13         6.0994   -5.4296   -0.7404 C.ar      1 <0>        -0.0930
     16 C14         6.4110   -6.6152   -1.3734 C.ar      1 <0>        -0.0245
     17 C15         7.6849   -7.1446   -1.2689 C.ar      1 <0>        -0.6017
     18 C16         8.6542   -6.4900   -0.5299 C.ar      1 <0>        -0.0217
     19 C17         8.3573   -5.3003    0.1025 C.ar      1 <0>        -0.1149
     20 S2          8.0745   -8.6596   -2.0800 S.o2      1 <0>         2.6068
     21 O1          9.1753   -9.2235   -1.3803 O.2       1 <0>        -1.0221
     22 O2          6.8470   -9.3536   -2.2555 O.2       1 <0>        -1.0239
     23 N2          8.6226   -8.2769   -3.5951 N.2       1 <0>        -1.0808
     24 C18         9.0098   -9.2907   -4.4744 C.ar      1 <0>         0.2964
     25 C19         8.9303  -10.6208   -4.0817 C.ar      1 <0>        -0.2647
     26 C20         9.3135  -11.6207   -4.9538 C.ar      1 <0>        -0.0476
     27 C21         9.7763  -11.2991   -6.2166 C.ar      1 <0>        -0.2355
     28 C22         9.8567   -9.9761   -6.6107 C.ar      1 <0>        -0.0636
     29 C23         9.4698   -8.9715   -5.7457 C.ar      1 <0>        -0.1803
     30 C24        10.1945  -12.3929   -7.1651 C.3       1 <0>        -0.0712
     31 C25         8.9892  -12.8342   -7.9979 C.3       1 <0>        -0.0111
     32 N3          9.3969  -13.9004   -8.9225 N.4       1 <0>        -0.5055
     33 C26         8.2397  -14.3241   -9.7221 C.3       1 <0>        -0.0426
     34 C27         8.6643  -15.4346  -10.6851 C.3       1 <0>         0.1404
     35 H1          9.0433  -16.2836  -10.1162 H         1 <0>         0.1328
     36 C28         7.4771  -15.8693  -11.5053 C.ar      1 <0>        -0.1952
     37 C29         6.7105  -16.9553  -11.1103 C.ar      1 <0>        -0.0552
     38 C30         5.6278  -17.3192  -11.8958 C.ar      1 <0>        -0.1653
     39 C31         5.3502  -16.5927  -13.0385 C.ar      1 <0>         0.1186
     40 N4          6.1015  -15.5655  -13.3838 N.ar      1 <0>        -0.4762
     41 C32         7.1353  -15.1872  -12.6575 C.ar      1 <0>         0.1169
     42 O3          9.6896  -14.9466  -11.5526 O.3       1 <0>        -0.5469
     43 H2         -0.9591    1.9053    0.0259 H         1 <0>         0.1201
     44 H3          1.1563    3.1654    0.0076 H         1 <0>         0.1208
     45 H4          3.3051    1.9634   -0.0196 H         1 <0>         0.1204
     46 H5          1.2231   -1.7588   -0.0176 H         1 <0>         0.1223
     47 H6         -0.9258   -0.5567    0.0082 H         1 <0>         0.1212
     48 H7          3.5884   -1.6586   -0.5549 H         1 <0>         0.0833
     49 H8          4.4573   -0.1052   -0.5563 H         1 <0>         0.0703
     50 H9          4.2941   -0.0118    1.9163 H         1 <0>         0.0801
     51 H10         3.4252   -1.5652    1.9176 H         1 <0>         0.0812
     52 H11         6.6408   -0.2941    2.6401 H         1 <0>         0.1992
     53 H12         5.1044   -5.0177   -0.8222 H         1 <0>         0.1414
     54 H13         5.6588   -7.1312   -1.9516 H         1 <0>         0.1450
     55 H14         9.6466   -6.9087   -0.4519 H         1 <0>         0.1459
     56 H15         9.1162   -4.7876    0.6749 H         1 <0>         0.1327
     57 H16         8.5696  -10.8726   -3.0953 H         1 <0>         0.1016
     58 H17         9.2519  -12.6550   -4.6490 H         1 <0>         0.1018
     59 H18        10.2187   -9.7283   -7.5977 H         1 <0>         0.1047
     60 H19         9.5286   -7.9386   -6.0558 H         1 <0>         0.1171
     61 H20        10.9766  -12.0207   -7.8268 H         1 <0>         0.0808
     62 H21        10.5735  -13.2419   -6.5962 H         1 <0>         0.0796
     63 H22         8.2071  -13.2065   -7.3362 H         1 <0>         0.1304
     64 H23         8.6102  -11.9852   -8.5667 H         1 <0>         0.1308
     65 H24        10.1209  -13.5558   -9.5350 H         1 <0>         0.4292
     66 H25         7.4576  -14.6964   -9.0604 H         1 <0>         0.1429
     67 H26         7.8607  -13.4751  -10.2909 H         1 <0>         0.1361
     68 H27         6.9515  -17.5047  -10.2123 H         1 <0>         0.1412
     69 H28         5.0092  -18.1600  -11.6187 H         1 <0>         0.1455
     70 H29         4.5085  -16.8697  -13.6559 H         1 <0>         0.1651
     71 H30         7.7244  -14.3374  -12.9693 H         1 <0>         0.1538
     72 H31         9.4219  -14.1891  -12.0907 H         1 <0>         0.3893
     73 H32         9.7478  -14.6864   -8.3959 H         1 <0>         0.4264
@<TRIPOS>BOND
     1    1    6 ar
     2    1    2 ar
     3    1   43 1
     4    2    3 ar
     5    2   44 1
     6    3    4 ar
     7    3   45 1
     8    4    5 ar
     9    4    7 1
    10    5    6 ar
    11    5   46 1
    12    6   47 1
    13    7    8 1
    14    7   48 1
    15    7   49 1
    16    8    9 1
    17    8   50 1
    18    8   51 1
    19    9   13 1
    20    9   10 2
    21   10   11 1
    22   10   52 1
    23   11   12 1
    24   12   13 2
    25   12   14 1
    26   14   19 ar
    27   14   15 ar
    28   15   16 ar
    29   15   53 1
    30   16   17 ar
    31   16   54 1
    32   17   18 ar
    33   17   20 1
    34   18   19 ar
    35   18   55 1
    36   19   56 1
    37   20   21 2
    38   20   22 2
    39   20   23 1
    40   23   24 1
    41   24   29 ar
    42   24   25 ar
    43   25   26 ar
    44   25   57 1
    45   26   27 ar
    46   26   58 1
    47   27   28 ar
    48   27   30 1
    49   28   29 ar
    50   28   59 1
    51   29   60 1
    52   30   31 1
    53   30   61 1
    54   30   62 1
    55   31   32 1
    56   31   63 1
    57   31   64 1
    58   32   33 1
    59   32   65 1
    60   32   73 1
    61   33   34 1
    62   33   66 1
    63   33   67 1
    64   34   35 1
    65   34   36 1
    66   34   42 1
    67   36   41 ar
    68   36   37 ar
    69   37   38 ar
    70   37   68 1
    71   38   39 ar
    72   38   69 1
    73   39   40 ar
    74   39   70 1
    75   40   41 ar
    76   41   71 1
    77   42   72 1
@<TRIPOS>MOLECULE
CHEMBL59270
   74    78     0     0     0
SMALL
USER_CHARGES

@<TRIPOS>ATOM
      1 C1         20.3645  -14.5840   -1.2411 C.ar      1 <0>        -0.1211
      2 C2         20.1578  -14.8737   -2.5768 C.ar      1 <0>        -0.1158
      3 C3         18.9150  -14.6651   -3.1451 C.ar      1 <0>        -0.1176
      4 C4         17.8788  -14.1673   -2.3775 C.ar      1 <0>        -0.0868
      5 C5         18.0852  -13.8784   -1.0415 C.ar      1 <0>        -0.1175
      6 C6         19.3284  -14.0857   -0.4736 C.ar      1 <0>        -0.1175
      7 C7         16.5242  -13.9390   -2.9972 C.3       1 <0>        -0.0669
      8 C8         15.6790  -15.2066   -2.8569 C.3       1 <0>        -0.0439
      9 C9         14.3244  -14.9783   -3.4766 C.2       1 <0>         0.0554
     10 C10        13.8634  -15.8239   -4.4362 C.2       1 <0>        -0.1828
     11 S1         12.2710  -15.0887   -4.7864 S.3       1 <0>         0.0394
     12 C11        12.3931  -13.7393   -3.6197 C.2       1 <0>         0.1210
     13 N1         13.5857  -13.9661   -3.0872 N.2       1 <0>        -0.4767
     14 C12        11.4227  -12.6633   -3.3244 C.ar      1 <0>         0.0537
     15 C13        11.7225  -11.6924   -2.3679 C.ar      1 <0>        -0.0972
     16 C14        10.8128  -10.6912   -2.0971 C.ar      1 <0>        -0.0165
     17 C15         9.6053  -10.6486   -2.7711 C.ar      1 <0>        -0.6670
     18 C16         9.3019  -11.6084   -3.7203 C.ar      1 <0>        -0.0106
     19 C17        10.2057  -12.6110   -4.0052 C.ar      1 <0>        -0.1151
     20 S2          8.4488   -9.3668   -2.4189 S.o2      1 <0>         2.6870
     21 O1          7.1576   -9.9046   -2.6696 O.2       1 <0>        -0.9393
     22 O2          8.8161   -8.8236   -1.1582 O.2       1 <0>        -0.9423
     23 N2          8.6885   -8.1699   -3.5380 N.pl3     1 <0>        -1.0672
     24 C18         9.9116   -7.4975   -3.5903 C.ar      1 <0>         0.1422
     25 C19        10.2266   -6.5495   -2.6251 C.ar      1 <0>        -0.1000
     26 C20        11.4370   -5.8868   -2.6795 C.ar      1 <0>        -0.0985
     27 C21        12.3348   -6.1657   -3.6937 C.ar      1 <0>        -0.1004
     28 C22        12.0244   -7.1089   -4.6561 C.ar      1 <0>        -0.1006
     29 C23        10.8181   -7.7794   -4.6044 C.ar      1 <0>        -0.1066
     30 C24        13.6543   -5.4399   -3.7504 C.3       1 <0>        -0.1023
     31 C25        14.7014   -6.2223   -2.9551 C.3       1 <0>        -0.0091
     32 N3         15.9875   -5.5147   -3.0104 N.4       1 <0>        -0.5054
     33 C26        16.9929   -6.2659   -2.2469 C.3       1 <0>        -0.0433
     34 C27        18.3325   -5.5290   -2.3045 C.3       1 <0>         0.1417
     35 H1         18.2185   -4.5339   -1.8745 H         1 <0>         0.1341
     36 C28        19.3638   -6.2996   -1.5212 C.ar      1 <0>        -0.2007
     37 C29        19.6198   -5.9827   -0.1957 C.ar      1 <0>        -0.0547
     38 C30        20.5771   -6.7184    0.4856 C.ar      1 <0>        -0.1641
     39 C31        21.2398   -7.7362   -0.1743 C.ar      1 <0>         0.1230
     40 N4         20.9707   -8.0095   -1.4358 N.ar      1 <0>        -0.4733
     41 C32        20.0623   -7.3346   -2.1131 C.ar      1 <0>         0.1178
     42 O3         18.7551   -5.4145   -3.6648 O.3       1 <0>        -0.5460
     43 H2         21.3342  -14.7512   -0.7960 H         1 <0>         0.1225
     44 H3         20.9674  -15.2626   -3.1766 H         1 <0>         0.1231
     45 H4         18.7538  -14.8908   -4.1889 H         1 <0>         0.1206
     46 H5         17.2757  -13.4892   -0.4418 H         1 <0>         0.1189
     47 H6         19.4897  -13.8597    0.5701 H         1 <0>         0.1212
     48 H7         16.0269  -13.1126   -2.4893 H         1 <0>         0.0776
     49 H8         16.6439  -13.6971   -4.0533 H         1 <0>         0.0682
     50 H9         16.1763  -16.0329   -3.3648 H         1 <0>         0.0837
     51 H10        15.5593  -15.4484   -1.8008 H         1 <0>         0.0834
     52 H11        14.3296  -16.6972   -4.8678 H         1 <0>         0.2042
     53 H12        12.6644  -11.7250   -1.8405 H         1 <0>         0.1447
     54 H13        11.0436   -9.9392   -1.3570 H         1 <0>         0.1467
     55 H14         8.3574  -11.5698   -4.2428 H         1 <0>         0.1502
     56 H15         9.9698  -13.3567   -4.7501 H         1 <0>         0.1403
     57 H16         7.9794   -7.9359   -4.1571 H         1 <0>         0.4317
     58 H17         9.5256   -6.3306   -1.8332 H         1 <0>         0.1435
     59 H18        11.6826   -5.1496   -1.9294 H         1 <0>         0.1333
     60 H19        12.7278   -7.3244   -5.4468 H         1 <0>         0.1307
     61 H20        10.5782   -8.5192   -5.3538 H         1 <0>         0.1359
     62 H21        13.9766   -5.3526   -4.7880 H         1 <0>         0.0987
     63 H22        13.5403   -4.4448   -3.3204 H         1 <0>         0.0995
     64 H23        14.3790   -6.3096   -1.9176 H         1 <0>         0.1358
     65 H24        14.8153   -7.2174   -3.3852 H         1 <0>         0.1342
     66 H25        16.2859   -5.4339   -3.9709 H         1 <0>         0.4326
     67 H26        16.6705   -6.3532   -1.2093 H         1 <0>         0.1454
     68 H27        17.1068   -7.2610   -2.6769 H         1 <0>         0.1377
     69 H28        19.0864   -5.1815    0.2942 H         1 <0>         0.1410
     70 H29        20.8024   -6.4989    1.5188 H         1 <0>         0.1470
     71 H30        21.9870   -8.3141    0.3494 H         1 <0>         0.1666
     72 H31        19.8653   -7.5908   -3.1436 H         1 <0>         0.1520
     73 H32        18.8770   -6.2634   -4.1115 H         1 <0>         0.3898
     74 H33        15.8821   -4.5936   -2.6124 H         1 <0>         0.4301
@<TRIPOS>BOND
     1    1    6 ar
     2    1    2 ar
     3    1   43 1
     4    2    3 ar
     5    2   44 1
     6    3    4 ar
     7    3   45 1
     8    4    5 ar
     9    4    7 1
    10    5    6 ar
    11    5   46 1
    12    6   47 1
    13    7    8 1
    14    7   48 1
    15    7   49 1
    16    8    9 1
    17    8   50 1
    18    8   51 1
    19    9   13 1
    20    9   10 2
    21   10   11 1
    22   10   52 1
    23   11   12 1
    24   12   13 2
    25   12   14 1
    26   14   19 ar
    27   14   15 ar
    28   15   16 ar
    29   15   53 1
    30   16   17 ar
    31   16   54 1
    32   17   18 ar
    33   17   20 1
    34   18   19 ar
    35   18   55 1
    36   19   56 1
    37   20   21 2
    38   20   22 2
    39   20   23 1
    40   23   24 1
    41   23   57 1
    42   24   29 ar
    43   24   25 ar
    44   25   26 ar
    45   25   58 1
    46   26   27 ar
    47   26   59 1
    48   27   28 ar
    49   27   30 1
    50   28   29 ar
    51   28   60 1
    52   29   61 1
    53   30   31 1
    54   30   62 1
    55   30   63 1
    56   31   32 1
    57   31   64 1
    58   31   65 1
    59   32   33 1
    60   32   66 1
    61   32   74 1
    62   33   34 1
    63   33   67 1
    64   33   68 1
    65   34   35 1
    66   34   36 1
    67   34   42 1
    68   36   41 ar
    69   36   37 ar
    70   37   38 ar
    71   37   69 1
    72   38   39 ar
    73   38   70 1
    74   39   40 ar
    75   39   71 1
    76   40   41 ar
    77   41   72 1
    78   42   73 1
@<TRIPOS>MOLECULE
CHEMBL270964
   61    63     0     0     0
SMALL
USER_CHARGES

@<TRIPOS>ATOM
      1 C1         -0.0740    1.4320   -0.0574 C.3       1 <0>        -0.1682
      2 C2         -0.0265   -0.0968   -0.0220 C.3       1 <0>         0.1363
      3 C3          0.6931   -0.6138   -1.2693 C.3       1 <0>        -0.1576
      4 N1          0.6953   -0.5353    1.1751 N.pl3     1 <0>        -0.7197
      5 C4          0.0240   -0.6608    2.3830 C.ar      1 <0>         0.2524
      6 C5         -1.2995   -0.2589    2.4907 C.ar      1 <0>        -0.2065
      7 C6         -1.9653   -0.3880    3.7053 C.ar      1 <0>        -0.0391
      8 C7         -1.3051   -0.9206    4.8163 C.ar      1 <0>        -0.1816
      9 C8         -0.0039   -1.3181    4.7204 C.ar      1 <0>        -0.0395
     10 C9          0.6796   -1.2016    3.5037 C.ar      1 <0>        -0.1992
     11 C10         2.0791   -1.6362    3.4001 C.2       1 <0>         0.5281
     12 O1          2.6148   -2.2041    4.3426 O.co2     1 <0>        -0.6790
     13 O2          2.7092   -1.4303    2.3714 O.co2     1 <0>        -0.6854
     14 C11        -3.3799    0.0412    3.8220 C.ar      1 <0>         0.0071
     15 C12        -4.0447    0.5681    2.7157 C.ar      1 <0>        -0.1158
     16 C13        -5.3611    0.9659    2.8302 C.ar      1 <0>        -0.1041
     17 C14        -6.0211    0.8426    4.0397 C.ar      1 <0>        -0.1315
     18 C15        -5.3665    0.3204    5.1408 C.ar      1 <0>        -0.1038
     19 C16        -4.0518   -0.0860    5.0367 C.ar      1 <0>        -0.1147
     20 C17        -7.4585    1.2793    4.1584 C.3       1 <0>        -0.0933
     21 C18        -8.3781    0.1022    3.8271 C.3       1 <0>        -0.0080
     22 N2         -9.7793    0.5279    3.9428 N.4       1 <0>        -0.5055
     23 C19       -10.6623   -0.6023    3.6248 C.3       1 <0>        -0.0420
     24 C20       -12.1217   -0.1589    3.7452 C.3       1 <0>         0.1353
     25 H1        -12.3119    0.6579    3.0490 H         1 <0>         0.1310
     26 C21       -13.0274   -1.3183    3.4190 C.ar      1 <0>        -0.1425
     27 C22       -13.3667   -2.2284    4.4026 C.ar      1 <0>        -0.1065
     28 C23       -14.1976   -3.2919    4.1033 C.ar      1 <0>        -0.1118
     29 C24       -14.6895   -3.4450    2.8205 C.ar      1 <0>        -0.1000
     30 C25       -14.3509   -2.5344    1.8372 C.ar      1 <0>        -0.1128
     31 C26       -13.5235   -1.4685    2.1375 C.ar      1 <0>        -0.1021
     32 O3        -12.3764    0.2837    5.0799 O.3       1 <0>        -0.5489
     33 H2          0.9418    1.8267   -0.0807 H         1 <0>         0.0595
     34 H3         -0.6110    1.7583   -0.9481 H         1 <0>         0.0558
     35 H4         -0.5866    1.8003    0.8312 H         1 <0>         0.0551
     36 H5         -1.0422   -0.4915    0.0013 H         1 <0>         0.0653
     37 H6          1.7089   -0.2191   -1.2926 H         1 <0>         0.0626
     38 H7          0.7269   -1.7029   -1.2441 H         1 <0>         0.0609
     39 H8          0.1561   -0.2875   -2.1600 H         1 <0>         0.0632
     40 H9          1.6425   -0.7380    1.1233 H         1 <0>         0.4245
     41 H10        -1.8114    0.1536    1.6338 H         1 <0>         0.1167
     42 H11        -1.8282   -1.0175    5.7561 H         1 <0>         0.1110
     43 H12         0.4991   -1.7279    5.5838 H         1 <0>         0.1273
     44 H13        -3.5303    0.6652    1.7711 H         1 <0>         0.1298
     45 H14        -5.8770    1.3746    1.9739 H         1 <0>         0.1203
     46 H15        -5.8866    0.2268    6.0827 H         1 <0>         0.1209
     47 H16        -3.5432   -0.4980    5.8958 H         1 <0>         0.1331
     48 H17        -7.6528    1.6169    5.1764 H         1 <0>         0.0925
     49 H18        -7.6488    2.0961    3.4621 H         1 <0>         0.0922
     50 H19        -8.1838   -0.2354    2.8091 H         1 <0>         0.1335
     51 H20        -8.1879   -0.7146    4.5233 H         1 <0>         0.1330
     52 H21        -9.9592    0.8404    4.8852 H         1 <0>         0.4308
     53 H22       -10.4679   -0.9399    2.6067 H         1 <0>         0.1442
     54 H23       -10.4720   -1.4191    4.3210 H         1 <0>         0.1363
     55 H24       -12.9824   -2.1088    5.4048 H         1 <0>         0.1226
     56 H25       -14.4621   -4.0033    4.8716 H         1 <0>         0.1312
     57 H26       -15.3381   -4.2763    2.5866 H         1 <0>         0.1312
     58 H27       -14.7350   -2.6543    0.8349 H         1 <0>         0.1316
     59 H28       -13.2620   -0.7550    1.3701 H         1 <0>         0.1275
     60 H29       -12.2273   -0.3934    5.7540 H         1 <0>         0.3882
     61 H30        -9.9554    1.2840    3.2983 H         1 <0>         0.4281
@<TRIPOS>BOND
     1    1    2 1
     2    1   33 1
     3    1   34 1
     4    1   35 1
     5    2    3 1
     6    2    4 1
     7    2   36 1
     8    3   37 1
     9    3   38 1
    10    3   39 1
    11    4    5 1
    12    4   40 1
    13    5   10 ar
    14    5    6 ar
    15    6    7 ar
    16    6   41 1
    17    7    8 ar
    18    7   14 1
    19    8    9 ar
    20    8   42 1
    21    9   10 ar
    22    9   43 1
    23   10   11 1
    24   11   12 2
    25   11   13 1
    26   14   19 ar
    27   14   15 ar
    28   15   16 ar
    29   15   44 1
    30   16   17 ar
    31   16   45 1
    32   17   18 ar
    33   17   20 1
    34   18   19 ar
    35   18   46 1
    36   19   47 1
    37   20   21 1
    38   20   48 1
    39   20   49 1
    40   21   22 1
    41   21   50 1
    42   21   51 1
    43   22   23 1
    44   22   52 1
    45   22   61 1
    46   23   24 1
    47   23   53 1
    48   23   54 1
    49   24   25 1
    50   24   26 1
    51   24   32 1
    52   26   31 ar
    53   26   27 ar
    54   27   28 ar
    55   27   55 1
    56   28   29 ar
    57   28   56 1
    58   29   30 ar
    59   29   57 1
    60   30   31 ar
    61   30   58 1
    62   31   59 1
    63   32   60 1
@<TRIPOS>MOLECULE
CHEMBL1094785
   51    53     0     0     0
SMALL
USER_CHARGES

@<TRIPOS>ATOM
      1 C1         -0.0187    1.5258    0.0104 C.3       1 <0>        -0.1830
      2 C2          0.0021   -0.0041    0.0020 C.3       1 <0>         0.0277
      3 H1          0.5123   -0.3556   -0.8948 H         1 <0>         0.1385
      4 C3         -1.4333   -0.5336    0.0129 C.3       1 <0>        -0.0920
      5 C4         -1.4159   -2.0348   -0.1192 C.ar      1 <0>        -0.1664
      6 C5         -1.4498   -2.6177   -1.3725 C.ar      1 <0>        -0.0633
      7 C6         -1.4344   -3.9935   -1.4962 C.ar      1 <0>        -0.1427
      8 C7         -1.3845   -4.7903   -0.3616 C.ar      1 <0>         0.1446
      9 C8         -1.3501   -4.2029    0.8947 C.ar      1 <0>        -0.2004
     10 C9         -1.3604   -2.8266    1.0129 C.ar      1 <0>        -0.0961
     11 O1         -1.3697   -6.1440   -0.4807 O.3       1 <0>        -0.3116
     12 C10        -1.3177   -6.9013    0.7301 C.3       1 <0>         0.0231
     13 N1          0.7126   -0.4907    1.1921 N.4       1 <0>        -0.5054
     14 C11         2.1220   -0.0825    1.1220 C.3       1 <0>        -0.0505
     15 C12         2.8620   -0.5894    2.3615 C.3       1 <0>         0.1619
     16 H2          2.8002   -1.6769    2.4022 H         1 <0>         0.1131
     17 C13         4.3078   -0.1706    2.2896 C.ar      1 <0>        -0.2611
     18 C14         4.7225    0.9699    2.9167 C.ar      1 <0>        -0.0412
     19 C15         6.0511    1.3663    2.8581 C.ar      1 <0>        -0.2645
     20 C16         6.9805    0.6143    2.1638 C.ar      1 <0>         0.2697
     21 C17         6.5778   -0.5546    1.5164 C.ar      1 <0>         0.0641
     22 C18         5.2304   -0.9522    1.5851 C.ar      1 <0>        -0.0665
     23 C19         4.8182   -2.1826    0.9067 C.2       1 <0>        -0.0483
     24 C20         5.7554   -2.8996    0.2390 C.2       1 <0>        -0.2054
     25 C21         7.0964   -2.4603    0.2055 C.2       1 <0>         0.5126
     26 O2          7.9230   -3.1202   -0.4003 O.2       1 <0>        -0.5715
     27 N2          7.4821   -1.3256    0.8153 N.am      1 <0>        -0.5936
     28 H3          8.4116   -1.0516    0.7718 H         1 <0>         0.4200
     29 O3          8.2797    1.0117    2.1115 O.3       1 <0>        -0.6871
     30 O4          2.2630   -0.0341    3.5341 O.3       1 <0>        -0.5570
     31 H4          1.0039    1.9031    0.0027 H         1 <0>         0.0855
     32 H5         -0.5459    1.8868   -0.8726 H         1 <0>         0.1040
     33 H6         -0.5289    1.8773    0.9072 H         1 <0>         0.0817
     34 H7         -1.9156   -0.2570    0.9504 H         1 <0>         0.0948
     35 H8         -1.9862   -0.1019   -0.8214 H         1 <0>         0.1171
     36 H9         -1.4887   -1.9970   -2.2554 H         1 <0>         0.1359
     37 H10        -1.4616   -4.4485   -2.4753 H         1 <0>         0.1388
     38 H11        -1.3112   -4.8211    1.7795 H         1 <0>         0.1365
     39 H12        -1.3292   -2.3687    1.9906 H         1 <0>         0.1258
     40 H13        -0.4118   -6.6457    1.2798 H         1 <0>         0.0604
     41 H14        -2.1906   -6.6705    1.3407 H         1 <0>         0.0594
     42 H15        -1.3110   -7.9652    0.4932 H         1 <0>         0.1073
     43 H16         0.2896   -0.0986    2.0201 H         1 <0>         0.4249
     44 H17         2.5788   -0.5061    0.2276 H         1 <0>         0.1391
     45 H18         2.1837    1.0050    1.0814 H         1 <0>         0.1380
     46 H19         4.0093    1.5692    3.4632 H         1 <0>         0.0999
     47 H20         6.3619    2.2711    3.3593 H         1 <0>         0.1112
     48 H21         3.7902   -2.5120    0.9378 H         1 <0>         0.1224
     49 H22         5.4749   -3.8105   -0.2690 H         1 <0>         0.1437
     50 H23         2.2821    0.9322    3.5656 H         1 <0>         0.3834
     51 H24         0.6554   -1.4974    1.2298 H         1 <0>         0.4220
@<TRIPOS>BOND
     1    1    2 1
     2    1   31 1
     3    1   32 1
     4    1   33 1
     5    2    3 1
     6    2    4 1
     7    2   13 1
     8    4    5 1
     9    4   34 1
    10    4   35 1
    11    5   10 ar
    12    5    6 ar
    13    6    7 ar
    14    6   36 1
    15    7    8 ar
    16    7   37 1
    17    8    9 ar
    18    8   11 1
    19    9   10 ar
    20    9   38 1
    21   10   39 1
    22   11   12 1
    23   12   40 1
    24   12   41 1
    25   12   42 1
    26   13   14 1
    27   13   43 1
    28   13   51 1
    29   14   15 1
    30   14   44 1
    31   14   45 1
    32   15   16 1
    33   15   17 1
    34   15   30 1
    35   17   22 ar
    36   17   18 ar
    37   18   19 ar
    38   18   46 1
    39   19   20 ar
    40   19   47 1
    41   20   21 ar
    42   20   29 1
    43   21   27 1
    44   21   22 ar
    45   22   23 1
    46   23   24 2
    47   23   48 1
    48   24   25 1
    49   24   49 1
    50   25   26 2
    51   25   27 am
    52   27   28 1
    53   30   50 1
@<TRIPOS>MOLECULE
CHEMBL46136
   68    69     0     0     0
SMALL
USER_CHARGES

@<TRIPOS>ATOM
      1 C1         -0.0187    1.5258    0.0104 C.3       1 <0>        -0.1780
      2 C2          0.0021   -0.0041    0.0020 C.3       1 <0>         0.0594
      3 C3         -1.4333   -0.5336    0.0129 C.3       1 <0>        -0.1366
      4 C4         -1.4126   -2.0635    0.0045 C.3       1 <0>        -0.1342
      5 C5         -0.6726   -2.5703    1.2440 C.3       1 <0>        -0.0950
      6 C6          0.7628   -2.0407    1.2331 C.3       1 <0>        -0.1379
      7 C7          0.7421   -0.5109    1.2415 C.3       1 <0>        -0.1352
      8 C8         -0.6518   -4.1002    1.2356 C.3       1 <0>         0.1831
      9 C9         -2.0829   -4.6290    1.1207 C.3       1 <0>        -0.1728
     10 C10         0.1711   -4.5925    0.0434 C.3       1 <0>        -0.1744
     11 N1         -0.0496   -4.5872    2.4791 N.am      1 <0>        -0.7250
     12 C11         0.0746   -5.9119    2.6940 C.2       1 <0>         0.5156
     13 O1         -0.3123   -6.7008    1.8580 O.2       1 <0>        -0.4990
     14 C12         0.6941   -6.4129    3.9732 C.3       1 <0>        -0.1246
     15 Br1         0.7207   -8.3787    3.9624 Br        1 <0>        -0.0892
     16 N2          0.6897   -0.4778   -1.2066 N.4       1 <0>        -0.4999
     17 C13        -0.0208    0.0088   -2.3967 C.3       1 <0>        -0.0535
     18 C14         0.6953   -0.4846   -3.6555 C.3       1 <0>         0.0879
     19 C15         0.0302    0.1233   -4.8920 C.3       1 <0>         0.0300
     20 O2          0.7689   -0.2434   -6.0590 O.3       1 <0>        -0.2968
     21 C16         0.3083    0.2184   -7.2513 C.ar      1 <0>         0.1196
     22 C17        -0.8282    1.0132   -7.2964 C.ar      1 <0>        -0.2065
     23 C18        -1.2941    1.4817   -8.5093 C.ar      1 <0>        -0.0839
     24 C19        -0.6289    1.1593   -9.6781 C.ar      1 <0>        -0.1432
     25 C20         0.5033    0.3673   -9.6358 C.ar      1 <0>        -0.0755
     26 C21         0.9767   -0.0992   -8.4245 C.ar      1 <0>        -0.0995
     27 C22         2.2146   -0.9574   -8.3785 C.3       1 <0>        -0.0467
     28 C23         1.8183   -2.4113   -8.3812 C.2       1 <0>        -0.1490
     29 C24         2.3035   -3.2208   -9.2897 C.2       1 <0>        -0.1878
     30 O3          0.6132   -1.9097   -3.7226 O.3       1 <0>        -0.5409
     31 H1          1.0039    1.9031    0.0027 H         1 <0>         0.0847
     32 H2         -0.5459    1.8868   -0.8726 H         1 <0>         0.0824
     33 H3         -0.5289    1.8773    0.9072 H         1 <0>         0.1080
     34 H4         -1.9435   -0.1821    0.9097 H         1 <0>         0.1145
     35 H5         -1.9605   -0.1726   -0.8702 H         1 <0>         0.0908
     36 H6         -2.4352   -2.4408    0.0122 H         1 <0>         0.1023
     37 H7         -0.9024   -2.4150   -0.8923 H         1 <0>         0.0642
     38 H8         -1.1828   -2.2188    2.1408 H         1 <0>         0.0948
     39 H9          1.2900   -2.4018    2.1162 H         1 <0>         0.0934
     40 H10         1.2730   -2.3923    0.3363 H         1 <0>         0.0669
     41 H11         1.7647   -0.1336    1.2338 H         1 <0>         0.0927
     42 H12         0.2319   -0.1594    2.1383 H         1 <0>         0.1144
     43 H13        -2.5310   -4.2666    0.1955 H         1 <0>         0.0670
     44 H14        -2.0681   -5.7189    1.1147 H         1 <0>         0.0855
     45 H15        -2.6692   -4.2782    1.9700 H         1 <0>         0.0592
     46 H16         1.1906   -4.2157    0.1252 H         1 <0>         0.0573
     47 H17         0.1859   -5.6824    0.0374 H         1 <0>         0.0880
     48 H18        -0.2770   -4.2301   -0.8818 H         1 <0>         0.0632
     49 H19         0.2598   -3.9563    3.1478 H         1 <0>         0.4003
     50 H20         1.7136   -6.0362    4.0550 H         1 <0>         0.1270
     51 H21         0.1078   -6.0622    4.8225 H         1 <0>         0.1280
     52 H22         1.6363   -0.1286   -1.2138 H         1 <0>         0.4276
     53 H23        -1.0434   -0.3685   -2.3890 H         1 <0>         0.1418
     54 H24        -0.0356    1.0987   -2.3907 H         1 <0>         0.1495
     55 H25         1.7419   -0.1822   -3.6202 H         1 <0>         0.1341
     56 H26        -0.9905   -0.2498   -4.9760 H         1 <0>         0.0759
     57 H27         0.0137    1.2092   -4.7988 H         1 <0>         0.0802
     58 H28        -1.3482    1.2649   -6.3840 H         1 <0>         0.1232
     59 H29        -2.1789    2.1000   -8.5450 H         1 <0>         0.1278
     60 H30        -0.9948    1.5267  -10.6255 H         1 <0>         0.1294
     61 H31         1.0209    0.1166  -10.5500 H         1 <0>         0.1333
     62 H32         2.8344   -0.7481   -9.2504 H         1 <0>         0.0779
     63 H33         2.7769   -0.7357   -7.4714 H         1 <0>         0.0826
     64 H34         1.1342   -2.7859   -7.6341 H         1 <0>         0.1062
     65 H35         2.0194   -4.2628   -9.2916 H         1 <0>         0.0994
     66 H36         2.9875   -2.8462  -10.0368 H         1 <0>         0.0982
     67 H37        -0.2911   -2.2504   -3.7567 H         1 <0>         0.3887
     68 H38         0.7033   -1.4867   -1.2121 H         1 <0>         0.4290
@<TRIPOS>BOND
     1    1    2 1
     2    1   31 1
     3    1   32 1
     4    1   33 1
     5    2    7 1
     6    2    3 1
     7    2   16 1
     8    3    4 1
     9    3   34 1
    10    3   35 1
    11    4    5 1
    12    4   36 1
    13    4   37 1
    14    5    6 1
    15    5    8 1
    16    5   38 1
    17    6    7 1
    18    6   39 1
    19    6   40 1
    20    7   41 1
    21    7   42 1
    22    8    9 1
    23    8   10 1
    24    8   11 1
    25    9   43 1
    26    9   44 1
    27    9   45 1
    28   10   46 1
    29   10   47 1
    30   10   48 1
    31   11   12 am
    32   11   49 1
    33   12   13 2
    34   12   14 1
    35   14   15 1
    36   14   50 1
    37   14   51 1
    38   16   17 1
    39   16   52 1
    40   16   68 1
    41   17   18 1
    42   17   53 1
    43   17   54 1
    44   18   19 1
    45   18   30 1
    46   18   55 1
    47   19   20 1
    48   19   56 1
    49   19   57 1
    50   20   21 1
    51   21   26 ar
    52   21   22 ar
    53   22   23 ar
    54   22   58 1
    55   23   24 ar
    56   23   59 1
    57   24   25 ar
    58   24   60 1
    59   25   26 ar
    60   25   61 1
    61   26   27 1
    62   27   28 1
    63   27   62 1
    64   27   63 1
    65   28   29 2
    66   28   64 1
    67   29   65 1
    68   29   66 1
    69   30   67 1
@<TRIPOS>MOLECULE
CHEMBL46136
   68    69     0     0     0
SMALL
USER_CHARGES

@<TRIPOS>ATOM
      1 C1         -0.0187    1.5258    0.0104 C.3       1 <0>        -0.1775
      2 C2          0.0021   -0.0041    0.0020 C.3       1 <0>         0.0596
      3 C3         -1.4333   -0.5336    0.0129 C.3       1 <0>        -0.1368
      4 C4         -1.4126   -2.0635    0.0045 C.3       1 <0>        -0.1340
      5 C5         -0.6726   -2.5703    1.2440 C.3       1 <0>        -0.0954
      6 C6          0.7628   -2.0407    1.2331 C.3       1 <0>        -0.1374
      7 C7          0.7421   -0.5109    1.2415 C.3       1 <0>        -0.1350
      8 C8         -0.6518   -4.1002    1.2356 C.3       1 <0>         0.1832
      9 C9         -2.0829   -4.6290    1.1207 C.3       1 <0>        -0.1730
     10 C10         0.1711   -4.5925    0.0434 C.3       1 <0>        -0.1758
     11 N1         -0.0496   -4.5872    2.4791 N.am      1 <0>        -0.7249
     12 C11         0.0746   -5.9119    2.6940 C.2       1 <0>         0.5157
     13 O1         -0.3123   -6.7008    1.8580 O.2       1 <0>        -0.4992
     14 C12         0.6941   -6.4129    3.9732 C.3       1 <0>        -0.1246
     15 Br1         0.7207   -8.3787    3.9624 Br        1 <0>        -0.0891
     16 N2          0.6897   -0.4778   -1.2066 N.4       1 <0>        -0.4990
     17 C13        -0.0208    0.0088   -2.3967 C.3       1 <0>        -0.0535
     18 C14         0.6953   -0.4846   -3.6555 C.3       1 <0>         0.0879
     19 C15        -0.0447    0.0222   -4.8950 C.3       1 <0>         0.0300
     20 O2          0.5543   -0.5330   -6.0676 O.3       1 <0>        -0.2967
     21 C16         0.0123   -0.1810   -7.2631 C.ar      1 <0>         0.1196
     22 C17        -1.0703    0.6858   -7.3070 C.ar      1 <0>        -0.2066
     23 C18        -1.6191    1.0425   -8.5233 C.ar      1 <0>        -0.0839
     24 C19        -1.0905    0.5364   -9.6967 C.ar      1 <0>        -0.1432
     25 C20        -0.0122   -0.3277   -9.6556 C.ar      1 <0>        -0.0756
     26 C21         0.5439   -0.6831   -8.4418 C.ar      1 <0>        -0.0993
     27 C22         1.7233   -1.6202   -8.3981 C.3       1 <0>        -0.0477
     28 C23         1.2366   -3.0307   -8.1865 C.2       1 <0>        -0.1501
     29 C24         1.5801   -3.9752   -9.0267 C.2       1 <0>        -0.1868
     30 O3          2.0359    0.0100   -3.6657 O.3       1 <0>        -0.5420
     31 H1          1.0039    1.9031    0.0027 H         1 <0>         0.0845
     32 H2         -0.5459    1.8868   -0.8726 H         1 <0>         0.0819
     33 H3         -0.5289    1.8773    0.9072 H         1 <0>         0.1080
     34 H4         -1.9435   -0.1821    0.9097 H         1 <0>         0.1148
     35 H5         -1.9605   -0.1726   -0.8702 H         1 <0>         0.0915
     36 H6         -2.4352   -2.4408    0.0122 H         1 <0>         0.1028
     37 H7         -0.9024   -2.4150   -0.8923 H         1 <0>         0.0628
     38 H8         -1.1828   -2.2188    2.1408 H         1 <0>         0.0955
     39 H9          1.2900   -2.4018    2.1162 H         1 <0>         0.0937
     40 H10         1.2730   -2.3923    0.3363 H         1 <0>         0.0660
     41 H11         1.7647   -0.1336    1.2338 H         1 <0>         0.0929
     42 H12         0.2319   -0.1594    2.1383 H         1 <0>         0.1144
     43 H13        -2.5310   -4.2666    0.1955 H         1 <0>         0.0671
     44 H14        -2.0681   -5.7189    1.1147 H         1 <0>         0.0856
     45 H15        -2.6692   -4.2782    1.9700 H         1 <0>         0.0596
     46 H16         1.1906   -4.2157    0.1252 H         1 <0>         0.0577
     47 H17         0.1859   -5.6824    0.0374 H         1 <0>         0.0887
     48 H18        -0.2770   -4.2301   -0.8818 H         1 <0>         0.0621
     49 H19         0.2598   -3.9563    3.1478 H         1 <0>         0.4005
     50 H20         1.7136   -6.0362    4.0550 H         1 <0>         0.1270
     51 H21         0.1078   -6.0622    4.8225 H         1 <0>         0.1281
     52 H22         1.6363   -0.1286   -1.2138 H         1 <0>         0.4309
     53 H23        -1.0434   -0.3685   -2.3890 H         1 <0>         0.1479
     54 H24        -0.0356    1.0987   -2.3907 H         1 <0>         0.1436
     55 H25         0.7101   -1.5745   -3.6615 H         1 <0>         0.1335
     56 H26        -1.0905   -0.2806   -4.8430 H         1 <0>         0.0804
     57 H27         0.0171    1.1097   -4.9357 H         1 <0>         0.0760
     58 H28        -1.4837    1.0811   -6.3908 H         1 <0>         0.1232
     59 H29        -2.4619    1.7169   -8.5580 H         1 <0>         0.1278
     60 H30        -1.5210    0.8165  -10.6468 H         1 <0>         0.1294
     61 H31         0.3986   -0.7219  -10.5734 H         1 <0>         0.1333
     62 H32         2.2690   -1.5617   -9.3398 H         1 <0>         0.0782
     63 H33         2.3826   -1.3365   -7.5778 H         1 <0>         0.0845
     64 H34         0.6045   -3.2628   -7.3421 H         1 <0>         0.1044
     65 H35         1.2313   -4.9860   -8.8751 H         1 <0>         0.0994
     66 H36         2.2122   -3.7430   -9.8711 H         1 <0>         0.0988
     67 H37         2.0992    0.9749   -3.6611 H         1 <0>         0.3893
     68 H38         0.7033   -1.4867   -1.2121 H         1 <0>         0.4251
@<TRIPOS>BOND
     1    1    2 1
     2    1   31 1
     3    1   32 1
     4    1   33 1
     5    2    7 1
     6    2    3 1
     7    2   16 1
     8    3    4 1
     9    3   34 1
    10    3   35 1
    11    4    5 1
    12    4   36 1
    13    4   37 1
    14    5    6 1
    15    5    8 1
    16    5   38 1
    17    6    7 1
    18    6   39 1
    19    6   40 1
    20    7   41 1
    21    7   42 1
    22    8    9 1
    23    8   10 1
    24    8   11 1
    25    9   43 1
    26    9   44 1
    27    9   45 1
    28   10   46 1
    29   10   47 1
    30   10   48 1
    31   11   12 am
    32   11   49 1
    33   12   13 2
    34   12   14 1
    35   14   15 1
    36   14   50 1
    37   14   51 1
    38   16   17 1
    39   16   52 1
    40   16   68 1
    41   17   18 1
    42   17   53 1
    43   17   54 1
    44   18   19 1
    45   18   30 1
    46   18   55 1
    47   19   20 1
    48   19   56 1
    49   19   57 1
    50   20   21 1
    51   21   26 ar
    52   21   22 ar
    53   22   23 ar
    54   22   58 1
    55   23   24 ar
    56   23   59 1
    57   24   25 ar
    58   24   60 1
    59   25   26 ar
    60   25   61 1
    61   26   27 1
    62   27   28 1
    63   27   62 1
    64   27   63 1
    65   28   29 2
    66   28   64 1
    67   29   65 1
    68   29   66 1
    69   30   67 1
@<TRIPOS>MOLECULE
CHEMBL57430
   61    63     0     0     0
SMALL
USER_CHARGES

@<TRIPOS>ATOM
      1 C1         -4.5215    2.5261  -10.0723 C.3       1 <0>        -0.1545
      2 C2         -4.0684    1.3528   -9.2011 C.3       1 <0>        -0.1264
      3 C3         -3.2304    0.3873  -10.0415 C.3       1 <0>        -0.1210
      4 C4         -2.7773   -0.7860   -9.1703 C.3       1 <0>        -0.1218
      5 C5         -1.9393   -1.7515  -10.0107 C.3       1 <0>        -0.1190
      6 C6         -1.4862   -2.9248   -9.1394 C.3       1 <0>        -0.1171
      7 C7         -0.6482   -3.8903   -9.9798 C.3       1 <0>        -0.1314
      8 C8         -0.1951   -5.0636   -9.1086 C.3       1 <0>         0.1337
      9 N1          0.6073   -5.9881   -9.9133 N.am      1 <0>        -0.7355
     10 C9          1.1170   -7.1023   -9.3518 C.2       1 <0>         0.7148
     11 O1          0.9107   -7.3402   -8.1774 O.2       1 <0>        -0.5600
     12 N2          1.8552   -7.9528  -10.0921 N.am      1 <0>        -0.5688
     13 C10         2.1761   -7.7711  -11.5103 C.3       1 <0>         0.0937
     14 C11         3.0297   -8.9920  -11.8903 C.3       1 <0>        -0.0825
     15 C12         3.1299   -9.7984  -10.6151 C.ar      1 <0>        -0.1645
     16 C13         2.4324   -9.1352   -9.6179 C.ar      1 <0>         0.2273
     17 C14         2.3867   -9.6910   -8.3383 C.ar      1 <0>        -0.1527
     18 C15         3.0304  -10.8813   -8.0738 C.ar      1 <0>         0.0145
     19 C16         3.7268  -11.5332   -9.0746 C.ar      1 <0>        -0.7005
     20 C17         3.7703  -10.9926  -10.3465 C.ar      1 <0>         0.0268
     21 S1          4.5486  -13.0538   -8.7325 S.o2      1 <0>         2.6934
     22 O2          5.6596  -13.1227   -9.6158 O.2       1 <0>        -0.9543
     23 O3          4.6920  -13.1293   -7.3207 O.2       1 <0>        -0.9475
     24 N3          3.5198  -14.2756   -9.1697 N.pl3     1 <0>        -1.0636
     25 C18         2.2911  -14.4195   -8.5213 C.ar      1 <0>         0.1203
     26 C19         2.2396  -14.9426   -7.2355 C.ar      1 <0>        -0.1045
     27 C20         1.0231  -15.0832   -6.5971 C.ar      1 <0>        -0.1114
     28 C21        -0.1430  -14.7043   -7.2366 C.ar      1 <0>        -0.1092
     29 C22        -0.0953  -14.1832   -8.5166 C.ar      1 <0>        -0.1143
     30 C23         1.1184  -14.0346   -9.1586 C.ar      1 <0>        -0.1104
     31 H1         -3.6475    3.0481  -10.4619 H         1 <0>         0.0533
     32 H2         -5.1211    2.1522  -10.9022 H         1 <0>         0.0533
     33 H3         -5.1185    3.2140   -9.4736 H         1 <0>         0.0538
     34 H4         -3.4688    1.7268   -8.3712 H         1 <0>         0.0606
     35 H5         -4.9424    0.8309   -8.8115 H         1 <0>         0.0606
     36 H6         -3.8300    0.0133  -10.8713 H         1 <0>         0.0607
     37 H7         -2.3564    0.9093  -10.4311 H         1 <0>         0.0607
     38 H8         -2.1777   -0.4120   -8.3404 H         1 <0>         0.0620
     39 H9         -3.6513   -1.3080   -8.7807 H         1 <0>         0.0619
     40 H10        -2.5389   -2.1255  -10.8405 H         1 <0>         0.0621
     41 H11        -1.0653   -1.2295  -10.4002 H         1 <0>         0.0621
     42 H12        -0.8866   -2.5508   -8.3096 H         1 <0>         0.0670
     43 H13        -2.3602   -3.4468   -8.7499 H         1 <0>         0.0669
     44 H14        -1.2478   -4.2643  -10.8097 H         1 <0>         0.0701
     45 H15         0.2258   -3.3683  -10.3694 H         1 <0>         0.0702
     46 H16         0.4045   -4.6897   -8.2787 H         1 <0>         0.0711
     47 H17        -1.0691   -5.5856   -8.7190 H         1 <0>         0.0710
     48 H18         0.7719   -5.7983  -10.8502 H         1 <0>         0.3992
     49 H19         1.2628   -7.7485  -12.1048 H         1 <0>         0.0870
     50 H20         2.7448   -6.8525  -11.6546 H         1 <0>         0.0869
     51 H21         2.5366   -9.5729  -12.6697 H         1 <0>         0.0969
     52 H22         4.0197   -8.6761  -12.2192 H         1 <0>         0.0977
     53 H23         1.8444   -9.1867   -7.5521 H         1 <0>         0.1510
     54 H24         2.9909  -11.3056   -7.0815 H         1 <0>         0.1462
     55 H25         4.3145  -11.5001  -11.1293 H         1 <0>         0.1422
     56 H26         3.7705  -14.8912   -9.8761 H         1 <0>         0.4252
     57 H27         3.1499  -15.2393   -6.7357 H         1 <0>         0.1356
     58 H28         0.9824  -15.4898   -5.5973 H         1 <0>         0.1305
     59 H29        -1.0931  -14.8159   -6.7354 H         1 <0>         0.1269
     60 H30        -1.0079  -13.8883   -9.0133 H         1 <0>         0.1270
     61 H31         1.1553  -13.6234  -10.1566 H         1 <0>         0.1270
@<TRIPOS>BOND
     1    1    2 1
     2    1   31 1
     3    1   32 1
     4    1   33 1
     5    2    3 1
     6    2   34 1
     7    2   35 1
     8    3    4 1
     9    3   36 1
    10    3   37 1
    11    4    5 1
    12    4   38 1
    13    4   39 1
    14    5    6 1
    15    5   40 1
    16    5   41 1
    17    6    7 1
    18    6   42 1
    19    6   43 1
    20    7    8 1
    21    7   44 1
    22    7   45 1
    23    8    9 1
    24    8   46 1
    25    8   47 1
    26    9   10 am
    27    9   48 1
    28   10   11 2
    29   10   12 am
    30   12   16 1
    31   12   13 1
    32   13   14 1
    33   13   49 1
    34   13   50 1
    35   14   15 1
    36   14   51 1
    37   14   52 1
    38   15   20 ar
    39   15   16 ar
    40   16   17 ar
    41   17   18 ar
    42   17   53 1
    43   18   19 ar
    44   18   54 1
    45   19   20 ar
    46   19   21 1
    47   20   55 1
    48   21   22 2
    49   21   23 2
    50   21   24 1
    51   24   25 1
    52   24   56 1
    53   25   30 ar
    54   25   26 ar
    55   26   27 ar
    56   26   57 1
    57   27   28 ar
    58   27   58 1
    59   28   29 ar
    60   28   59 1
    61   29   30 ar
    62   29   60 1
    63   30   61 1
@<TRIPOS>MOLECULE
CHEMBL125963
   67    71     0     0     0
SMALL
USER_CHARGES

@<TRIPOS>ATOM
      1 C1         -0.0167    1.3787    0.0096 C.ar      1 <0>        -0.0977
      2 C2          1.1669    2.0891    0.0021 C.ar      1 <0>        -0.0701
      3 C3          2.3845    1.4118   -0.0131 C.ar      1 <0>        -0.0233
      4 C4          2.4008    0.0168   -0.0208 C.ar      1 <0>         0.0750
      5 C5          1.2079   -0.6854   -0.0132 C.ar      1 <0>         0.0722
      6 C6          0.0021   -0.0041    0.0020 C.ar      1 <0>        -0.1220
      7 F1          1.2199   -2.0363   -0.0206 F         1 <0>        -0.1258
      8 F2          3.5775   -0.6469   -0.0361 F         1 <0>        -0.1207
      9 C7          3.6589    2.1714   -0.0217 C.2       1 <0>         0.0864
     10 C8          4.8588    1.5089   -0.0420 C.2       1 <0>        -0.1895
     11 S1          5.9979    2.8873   -0.0442 S.3       1 <0>         0.0384
     12 C9          4.7724    4.1884   -0.0182 C.2       1 <0>         0.1620
     13 N1          3.6475    3.4908   -0.0154 N.2       1 <0>        -0.4841
     14 C10         4.9642    5.6545   -0.0080 C.ar      1 <0>         0.0169
     15 C11         3.8587    6.5057    0.0190 C.ar      1 <0>        -0.0922
     16 C12         4.0446    7.8728    0.0289 C.ar      1 <0>        -0.0242
     17 C13         5.3235    8.4002    0.0114 C.ar      1 <0>        -0.6004
     18 C14         6.4237    7.5618   -0.0154 C.ar      1 <0>        -0.0212
     19 C15         6.2517    6.1929   -0.0197 C.ar      1 <0>        -0.1136
     20 S2          5.5522   10.1472    0.0230 S.o2      1 <0>         2.6062
     21 O1          6.8300   10.3934   -0.5479 O.2       1 <0>        -1.0217
     22 O2          4.3607   10.7162   -0.5024 O.2       1 <0>        -1.0236
     23 N2          5.6430   10.6187    1.6078 N.2       1 <0>        -1.0809
     24 C16         5.8251   11.9665    1.9262 C.ar      1 <0>         0.2962
     25 C17         5.9244   12.9134    0.9147 C.ar      1 <0>        -0.2645
     26 C18         6.1039   14.2452    1.2330 C.ar      1 <0>        -0.0477
     27 C19         6.1852   14.6365    2.5568 C.ar      1 <0>        -0.2350
     28 C20         6.0868   13.6964    3.5662 C.ar      1 <0>        -0.0637
     29 C21         5.9015   12.3637    3.2551 C.ar      1 <0>        -0.1801
     30 C22         6.3821   16.0905    2.9003 C.3       1 <0>        -0.0715
     31 C23         5.0187   16.7685    3.0495 C.3       1 <0>        -0.0111
     32 N3          5.2106   18.1859    3.3843 N.4       1 <0>        -0.5055
     33 C24         3.9015   18.8368    3.5275 C.3       1 <0>        -0.0425
     34 C25         4.1014   20.3131    3.8762 C.3       1 <0>         0.1403
     35 H1          4.6648   20.8012    3.0809 H         1 <0>         0.1328
     36 C26         2.7585   20.9809    4.0231 C.ar      1 <0>        -0.1952
     37 C27         2.1862   21.6502    2.9519 C.ar      1 <0>        -0.0552
     38 C28         0.9494   22.2497    3.1331 C.ar      1 <0>        -0.1652
     39 C29         0.3322   22.1609    4.3667 C.ar      1 <0>         0.1186
     40 N4          0.9064   21.5164    5.3634 N.ar      1 <0>        -0.4761
     41 C30         2.0792   20.9291    5.2254 C.ar      1 <0>         0.1169
     42 O3          4.8230   20.4188    5.1051 O.3       1 <0>        -0.5469
     43 H2         -0.9600    1.9043    0.0260 H         1 <0>         0.1461
     44 H3          1.1492    3.1690    0.0078 H         1 <0>         0.1515
     45 H4         -0.9270   -0.5548    0.0079 H         1 <0>         0.1492
     46 H5          5.0604    0.4479   -0.0532 H         1 <0>         0.2177
     47 H6          2.8599    6.0953    0.0319 H         1 <0>         0.1417
     48 H7          3.1899    8.5326    0.0498 H         1 <0>         0.1458
     49 H8          7.4195    7.9797   -0.0289 H         1 <0>         0.1467
     50 H9          7.1114    5.5394   -0.0365 H         1 <0>         0.1334
     51 H10         5.8616   12.6084   -0.1195 H         1 <0>         0.1017
     52 H11         6.1812   14.9819    0.4471 H         1 <0>         0.1019
     53 H12         6.1507   14.0053    4.5991 H         1 <0>         0.1048
     54 H13         5.8201   11.6306    4.0440 H         1 <0>         0.1172
     55 H14         6.9325   16.1712    3.8377 H         1 <0>         0.0809
     56 H15         6.9455   16.5786    2.1050 H         1 <0>         0.0797
     57 H16         4.4683   16.6879    2.1121 H         1 <0>         0.1304
     58 H17         4.4553   16.2804    3.8447 H         1 <0>         0.1308
     59 H18         5.7201   18.2605    4.2520 H         1 <0>         0.4292
     60 H19         3.3512   18.7562    2.5901 H         1 <0>         0.1429
     61 H20         3.3381   18.3487    4.3227 H         1 <0>         0.1361
     62 H21         2.6922   21.7035    1.9993 H         1 <0>         0.1412
     63 H22         0.4744   22.7796    2.3207 H         1 <0>         0.1455
     64 H23        -0.6314   22.6252    4.5160 H         1 <0>         0.1651
     65 H24         2.5159   20.4057    6.0630 H         1 <0>         0.1538
     66 H25         4.3795   20.0052    5.8584 H         1 <0>         0.3893
     67 H26         5.7322   18.6377    2.6481 H         1 <0>         0.4264
@<TRIPOS>BOND
     1    1    6 ar
     2    1    2 ar
     3    1   43 1
     4    2    3 ar
     5    2   44 1
     6    3    4 ar
     7    3    9 1
     8    4    5 ar
     9    4    8 1
    10    5    6 ar
    11    5    7 1
    12    6   45 1
    13    9   13 1
    14    9   10 2
    15   10   11 1
    16   10   46 1
    17   11   12 1
    18   12   13 2
    19   12   14 1
    20   14   19 ar
    21   14   15 ar
    22   15   16 ar
    23   15   47 1
    24   16   17 ar
    25   16   48 1
    26   17   18 ar
    27   17   20 1
    28   18   19 ar
    29   18   49 1
    30   19   50 1
    31   20   21 2
    32   20   22 2
    33   20   23 1
    34   23   24 1
    35   24   29 ar
    36   24   25 ar
    37   25   26 ar
    38   25   51 1
    39   26   27 ar
    40   26   52 1
    41   27   28 ar
    42   27   30 1
    43   28   29 ar
    44   28   53 1
    45   29   54 1
    46   30   31 1
    47   30   55 1
    48   30   56 1
    49   31   32 1
    50   31   57 1
    51   31   58 1
    52   32   33 1
    53   32   59 1
    54   32   67 1
    55   33   34 1
    56   33   60 1
    57   33   61 1
    58   34   35 1
    59   34   36 1
    60   34   42 1
    61   36   41 ar
    62   36   37 ar
    63   37   38 ar
    64   37   62 1
    65   38   39 ar
    66   38   63 1
    67   39   40 ar
    68   39   64 1
    69   40   41 ar
    70   41   65 1
    71   42   66 1
@<TRIPOS>MOLECULE
CHEMBL125963
   68    72     0     0     0
SMALL
USER_CHARGES

@<TRIPOS>ATOM
      1 C1         14.9957   15.7535   -1.1273 C.ar      1 <0>        -0.0985
      2 C2         13.6379   15.7289   -0.8796 C.ar      1 <0>        -0.0732
      3 C3         12.9564   16.9166   -0.6218 C.ar      1 <0>        -0.0277
      4 C4         13.6512   18.1264   -0.6155 C.ar      1 <0>         0.0768
      5 C5         15.0127   18.1393   -0.8652 C.ar      1 <0>         0.0777
      6 C6         15.6823   16.9540   -1.1205 C.ar      1 <0>        -0.1186
      7 F1         15.6888   19.3089   -0.8599 F         1 <0>        -0.1212
      8 F2         12.9971   19.2820   -0.3668 F         1 <0>        -0.1187
      9 C7         11.4970   16.8948   -0.3556 C.2       1 <0>         0.0829
     10 C8         10.8219   18.0615   -0.1067 C.2       1 <0>        -0.1731
     11 S1          9.1624   17.4393    0.1316 S.3       1 <0>         0.0615
     12 C9          9.5352   15.7095   -0.1220 C.2       1 <0>         0.1257
     13 N1         10.8362   15.7527   -0.3616 N.2       1 <0>        -0.4729
     14 C10         8.6296   14.5413   -0.0807 C.ar      1 <0>         0.0518
     15 C11         9.1306   13.2581   -0.3035 C.ar      1 <0>        -0.0964
     16 C12         8.2805   12.1722   -0.2631 C.ar      1 <0>        -0.0163
     17 C13         6.9338   12.3535   -0.0027 C.ar      1 <0>        -0.6659
     18 C14         6.4308   13.6231    0.2191 C.ar      1 <0>        -0.0100
     19 C15         7.2713   14.7167    0.1871 C.ar      1 <0>        -0.1136
     20 S2          5.8546   10.9616    0.0460 S.o2      1 <0>         2.6871
     21 O1          4.5734   11.4267   -0.3556 O.2       1 <0>        -0.9388
     22 O2          6.5257    9.9037   -0.6247 O.2       1 <0>        -0.9419
     23 N2          5.7165   10.5044    1.6316 N.pl3     1 <0>        -1.0671
     24 C16         6.8423   10.0664    2.3328 C.ar      1 <0>         0.1420
     25 C17         7.3615    8.8001    2.0949 C.ar      1 <0>        -0.0999
     26 C18         8.4750    8.3703    2.7895 C.ar      1 <0>        -0.0984
     27 C19         9.0729    9.1989    3.7214 C.ar      1 <0>        -0.1003
     28 C20         8.5587   10.4601    3.9607 C.ar      1 <0>        -0.1006
     29 C21         7.4488   10.8983    3.2654 C.ar      1 <0>        -0.1067
     30 C22        10.2873    8.7261    4.4782 C.3       1 <0>        -0.1025
     31 C23        11.5509    9.1085    3.7050 C.3       1 <0>        -0.0089
     32 N3         12.7347    8.6477    4.4427 N.4       1 <0>        -0.5057
     33 C24        13.9480    9.0149    3.7004 C.3       1 <0>        -0.0429
     34 C25        15.1809    8.5349    4.4687 C.3       1 <0>         0.1414
     35 H1         15.1388    7.4518    4.5832 H         1 <0>         0.1341
     36 C26        16.4255    8.9116    3.7071 C.ar      1 <0>        -0.2004
     37 C27        17.0191    8.0065    2.8403 C.ar      1 <0>        -0.0545
     38 C28        18.1628    8.3965    2.1608 C.ar      1 <0>        -0.1639
     39 C29        18.6700    9.6655    2.3685 C.ar      1 <0>         0.1227
     40 N4         18.0791   10.4999    3.2011 N.ar      1 <0>        -0.4745
     41 C30        16.9865   10.1652    3.8595 C.ar      1 <0>         0.1173
     42 O3         15.2074    9.1495    5.7586 O.3       1 <0>        -0.5460
     43 H2         15.5242   14.8321   -1.3226 H         1 <0>         0.1449
     44 H3         13.1043   14.7900   -0.8859 H         1 <0>         0.1475
     45 H4         16.7446   16.9673   -1.3150 H         1 <0>         0.1517
     46 H5         11.1903   19.0759   -0.0655 H         1 <0>         0.2218
     47 H6         10.1815   13.1153   -0.5076 H         1 <0>         0.1450
     48 H7          8.6669   11.1786   -0.4354 H         1 <0>         0.1475
     49 H8          5.3786   13.7580    0.4218 H         1 <0>         0.1510
     50 H9          6.8782   15.7069    0.3645 H         1 <0>         0.1411
     51 H10         4.8537   10.5407    2.0735 H         1 <0>         0.4319
     52 H11         6.8946    8.1522    1.3677 H         1 <0>         0.1436
     53 H12         8.8791    7.3859    2.6051 H         1 <0>         0.1334
     54 H13         9.0280   11.1046    4.6891 H         1 <0>         0.1308
     55 H14         7.0503   11.8851    3.4495 H         1 <0>         0.1359
     56 H15        10.3075    9.1949    5.4621 H         1 <0>         0.0987
     57 H16        10.2452    7.6430    4.5926 H         1 <0>         0.0995
     58 H17        11.5307    8.6398    2.7212 H         1 <0>         0.1358
     59 H18        11.5930   10.1917    3.5906 H         1 <0>         0.1341
     60 H19        12.7534    9.0817    5.3535 H         1 <0>         0.4327
     61 H20        13.9277    8.5461    2.7165 H         1 <0>         0.1454
     62 H21        13.9901   10.0981    3.5859 H         1 <0>         0.1377
     63 H22        16.6005    7.0211    2.6981 H         1 <0>         0.1412
     64 H23        18.6516    7.7172    1.4781 H         1 <0>         0.1472
     65 H24        19.5606    9.9769    1.8431 H         1 <0>         0.1670
     66 H25        16.5275   10.8775    4.5291 H         1 <0>         0.1524
     67 H26        15.2451   10.1154    5.7333 H         1 <0>         0.3898
     68 H27        12.6957    7.6450    4.5487 H         1 <0>         0.4303
@<TRIPOS>BOND
     1    1    6 ar
     2    1    2 ar
     3    1   43 1
     4    2    3 ar
     5    2   44 1
     6    3    4 ar
     7    3    9 1
     8    4    5 ar
     9    4    8 1
    10    5    6 ar
    11    5    7 1
    12    6   45 1
    13    9   13 1
    14    9   10 2
    15   10   11 1
    16   10   46 1
    17   11   12 1
    18   12   13 2
    19   12   14 1
    20   14   19 ar
    21   14   15 ar
    22   15   16 ar
    23   15   47 1
    24   16   17 ar
    25   16   48 1
    26   17   18 ar
    27   17   20 1
    28   18   19 ar
    29   18   49 1
    30   19   50 1
    31   20   21 2
    32   20   22 2
    33   20   23 1
    34   23   24 1
    35   23   51 1
    36   24   29 ar
    37   24   25 ar
    38   25   26 ar
    39   25   52 1
    40   26   27 ar
    41   26   53 1
    42   27   28 ar
    43   27   30 1
    44   28   29 ar
    45   28   54 1
    46   29   55 1
    47   30   31 1
    48   30   56 1
    49   30   57 1
    50   31   32 1
    51   31   58 1
    52   31   59 1
    53   32   33 1
    54   32   60 1
    55   32   68 1
    56   33   34 1
    57   33   61 1
    58   33   62 1
    59   34   35 1
    60   34   36 1
    61   34   42 1
    62   36   41 ar
    63   36   37 ar
    64   37   38 ar
    65   37   63 1
    66   38   39 ar
    67   38   64 1
    68   39   40 ar
    69   39   65 1
    70   40   41 ar
    71   41   66 1
    72   42   67 1
@<TRIPOS>MOLECULE
CHEMBL104481
   80    83     0     0     0
SMALL
USER_CHARGES

@<TRIPOS>ATOM
      1 C1         -0.0176    1.3870    0.0035 C.ar      1 <0>        -0.0562
      2 C2          1.1686    2.0942   -0.0034 C.ar      1 <0>        -0.1950
      3 C3          2.3803    1.4150   -0.0175 C.ar      1 <0>         0.2377
      4 C4          2.3942    0.0260   -0.0245 C.ar      1 <0>        -0.1977
      5 C5          1.2043   -0.6750   -0.0175 C.ar      1 <0>        -0.0562
      6 C6         -0.0001    0.0043   -0.0035 C.ar      1 <0>        -0.1762
      7 C7         -1.2965   -0.7640    0.0045 C.3       1 <0>        -0.0896
      8 C8         -1.7485   -1.0168   -1.4352 C.3       1 <0>        -0.0077
      9 N1         -3.0122   -1.7657   -1.4273 N.4       1 <0>        -0.5041
     10 C9         -3.4462   -2.0084   -2.8096 C.3       1 <0>        -0.0416
     11 C10        -4.7624   -2.7885   -2.8014 C.3       1 <0>         0.0857
     12 H1         -5.5239   -2.2107   -2.2776 H         1 <0>         0.1360
     13 C11        -5.2144   -3.0413   -4.2411 C.3       1 <0>         0.0288
     14 O1         -6.4994   -3.6663   -4.2341 O.3       1 <0>        -0.3011
     15 C12        -7.0490   -3.9613   -5.4424 C.ar      1 <0>         0.1089
     16 C13        -6.3619   -3.6600   -6.6089 C.ar      1 <0>        -0.1914
     17 C14        -6.9201   -3.9596   -7.8364 C.ar      1 <0>        -0.1061
     18 C15        -8.1676   -4.5622   -7.9023 C.ar      1 <0>         0.0802
     19 C16        -8.8543   -4.8644   -6.7358 C.ar      1 <0>        -0.1027
     20 C17        -8.2942   -4.5687   -5.5082 C.ar      1 <0>        -0.1261
     21 O2         -8.7176   -4.8564   -9.1107 O.3       1 <0>        -0.4958
     22 O3         -4.5712   -4.0384   -2.1357 O.3       1 <0>        -0.5434
     23 N2          3.5818    2.1271   -0.0250 N.pl3     1 <0>        -0.7360
     24 C18         4.8587    1.4092   -0.0399 C.3       1 <0>         0.1510
     25 C19         5.2277    1.0548   -1.4823 C.3       1 <0>        -0.1486
     26 C20         6.5457    0.2742   -1.4909 C.3       1 <0>         0.1316
     27 N3          7.5655    1.0600   -0.7828 N.am      1 <0>        -0.6327
     28 C21         7.2758    1.5298    0.5788 C.3       1 <0>         0.1160
     29 C22         5.9496    2.2964    0.5643 C.3       1 <0>        -0.1436
     30 C23         8.7443    1.3442   -1.3711 C.2       1 <0>         0.7091
     31 O4          9.0093    0.8735   -2.4604 O.2       1 <0>        -0.5835
     32 N4          9.6295    2.1501   -0.7518 N.am      1 <0>        -0.7420
     33 C24        10.8614    2.5487   -1.4372 C.3       1 <0>         0.1607
     34 C25        10.5842    3.7714   -2.3142 C.3       1 <0>        -0.1276
     35 C26        11.8707    4.1878   -3.0301 C.3       1 <0>        -0.1181
     36 C27        12.9413    4.5355   -1.9938 C.3       1 <0>        -0.1230
     37 C28        13.2184    3.3129   -1.1168 C.3       1 <0>        -0.1167
     38 C29        11.9319    2.8965   -0.4010 C.3       1 <0>        -0.1260
     39 H2         -0.9599    1.9145    0.0190 H         1 <0>         0.1216
     40 H3          1.1542    3.1741    0.0017 H         1 <0>         0.1247
     41 H4          3.3345   -0.5051   -0.0358 H         1 <0>         0.1267
     42 H5          1.2145   -1.7549   -0.0230 H         1 <0>         0.1214
     43 H6         -1.1506   -1.7174    0.5123 H         1 <0>         0.0915
     44 H7         -2.0580   -0.1862    0.5283 H         1 <0>         0.0914
     45 H8         -1.8943   -0.0634   -1.9429 H         1 <0>         0.1327
     46 H9         -0.9870   -1.5946   -1.9589 H         1 <0>         0.1322
     47 H10        -2.8772   -2.6483   -0.9573 H         1 <0>         0.4329
     48 H11        -3.5920   -1.0550   -3.3173 H         1 <0>         0.1466
     49 H12        -2.6847   -2.5862   -3.3333 H         1 <0>         0.1394
     50 H13        -5.2746   -2.0928   -4.7748 H         1 <0>         0.0819
     51 H14        -4.4960   -3.6930   -4.7383 H         1 <0>         0.0768
     52 H15        -5.3905   -3.1908   -6.5576 H         1 <0>         0.1285
     53 H16        -6.3854   -3.7244   -8.7447 H         1 <0>         0.1352
     54 H17        -9.8259   -5.3333   -6.7871 H         1 <0>         0.1417
     55 H18        -8.8273   -4.8073   -4.5998 H         1 <0>         0.1387
     56 H19        -8.4933   -5.7372   -9.4409 H         1 <0>         0.3939
     57 H20        -3.9057   -4.6060   -2.5482 H         1 <0>         0.3900
     58 H21         3.5708    3.0971   -0.0204 H         1 <0>         0.4032
     59 H22         4.7681    0.4949    0.5466 H         1 <0>         0.0843
     60 H23         4.4392    0.4423   -1.9195 H         1 <0>         0.0782
     61 H24         5.3429    1.9697   -2.0635 H         1 <0>         0.0722
     62 H25         6.4070   -0.6826   -0.9875 H         1 <0>         0.0668
     63 H26         6.8637    0.1054   -2.5197 H         1 <0>         0.0990
     64 H27         7.1967    0.6754    1.2510 H         1 <0>         0.0753
     65 H28         8.0755    2.1894    0.9156 H         1 <0>         0.0841
     66 H29         6.0580    3.1995   -0.0363 H         1 <0>         0.0757
     67 H30         5.6749    2.5675    1.5837 H         1 <0>         0.0851
     68 H31         9.4509    2.4661    0.1477 H         1 <0>         0.3935
     69 H32        11.2126    1.7265   -2.0607 H         1 <0>         0.0904
     70 H33         9.8215    3.5237   -3.0525 H         1 <0>         0.0647
     71 H34        10.2329    4.5936   -1.6908 H         1 <0>         0.0613
     72 H35        12.2220    3.3656   -3.6535 H         1 <0>         0.0655
     73 H36        11.6733    5.0588   -3.6548 H         1 <0>         0.0655
     74 H37        13.8578    4.8322   -2.5038 H         1 <0>         0.0661
     75 H38        12.5900    5.3577   -1.3703 H         1 <0>         0.0625
     76 H39        13.5697    2.4907   -1.7402 H         1 <0>         0.0666
     77 H40        13.9811    3.5606   -0.3785 H         1 <0>         0.0692
     78 H41        11.5806    3.7187    0.2225 H         1 <0>         0.0668
     79 H42        12.1294    2.0254    0.2238 H         1 <0>         0.0687
     80 H43        -3.7171   -1.2309   -0.9425 H         1 <0>         0.4304
@<TRIPOS>BOND
     1    1    6 ar
     2    1    2 ar
     3    1   39 1
     4    2    3 ar
     5    2   40 1
     6    3    4 ar
     7    3   23 1
     8    4    5 ar
     9    4   41 1
    10    5    6 ar
    11    5   42 1
    12    6    7 1
    13    7    8 1
    14    7   43 1
    15    7   44 1
    16    8    9 1
    17    8   45 1
    18    8   46 1
    19    9   10 1
    20    9   47 1
    21    9   80 1
    22   10   11 1
    23   10   48 1
    24   10   49 1
    25   11   12 1
    26   11   13 1
    27   11   22 1
    28   13   14 1
    29   13   50 1
    30   13   51 1
    31   14   15 1
    32   15   20 ar
    33   15   16 ar
    34   16   17 ar
    35   16   52 1
    36   17   18 ar
    37   17   53 1
    38   18   19 ar
    39   18   21 1
    40   19   20 ar
    41   19   54 1
    42   20   55 1
    43   21   56 1
    44   22   57 1
    45   23   24 1
    46   23   58 1
    47   24   29 1
    48   24   25 1
    49   24   59 1
    50   25   26 1
    51   25   60 1
    52   25   61 1
    53   26   27 1
    54   26   62 1
    55   26   63 1
    56   27   28 1
    57   27   30 am
    58   28   29 1
    59   28   64 1
    60   28   65 1
    61   29   66 1
    62   29   67 1
    63   30   31 2
    64   30   32 am
    65   32   33 1
    66   32   68 1
    67   33   38 1
    68   33   34 1
    69   33   69 1
    70   34   35 1
    71   34   70 1
    72   34   71 1
    73   35   36 1
    74   35   72 1
    75   35   73 1
    76   36   37 1
    77   36   74 1
    78   36   75 1
    79   37   38 1
    80   37   76 1
    81   37   77 1
    82   38   78 1
    83   38   79 1
@<TRIPOS>MOLECULE
CHEMBL466088
   73    76     0     0     0
SMALL
USER_CHARGES

@<TRIPOS>ATOM
      1 C1         -0.0541    1.5197   -0.0108 C.3       1 <0>        -0.1862
      2 C2         -0.0250   -0.0101   -0.0153 C.3       1 <0>         0.0302
      3 C3          0.7122   -0.5098    1.2288 C.3       1 <0>        -0.1011
      4 C4          0.6348   -2.0136    1.2884 C.ar      1 <0>        -0.1307
      5 C5         -0.4186   -2.6248    1.9433 C.ar      1 <0>        -0.0838
      6 C6         -0.4925   -4.0028    1.9997 C.ar      1 <0>        -0.1057
      7 C7          0.4924   -4.7747    1.3975 C.ar      1 <0>         0.1513
      8 C8          1.5488   -4.1578    0.7402 C.ar      1 <0>        -0.1268
      9 C9          1.6143   -2.7794    0.6832 C.ar      1 <0>        -0.1188
     10 N1          0.4207   -6.1710    1.4532 N.am      1 <0>        -0.6653
     11 C10        -0.0722   -6.7771    2.5514 C.2       1 <0>         0.5145
     12 O1         -0.5308   -6.1127    3.4565 O.2       1 <0>        -0.4903
     13 C11        -0.0534   -8.2805    2.6548 C.3       1 <0>        -0.0993
     14 C12        -0.6574   -8.7011    3.9698 C.cat     1 <0>         0.3155
     15 N2         -1.9300   -8.8732    4.2019 N.pl3     1 <0>        -0.4637
     16 C13        -2.1002   -9.2472    5.4787 C.2       1 <0>         0.0144
     17 C14        -0.8869   -9.3093    6.0599 C.2       1 <0>         0.0355
     18 N3          0.0291   -8.9682    5.1016 N.pl3     1 <0>        -0.3878
     19 C15         1.4826   -8.9021    5.2728 C.3       1 <0>         0.1354
     20 C16         1.8863   -7.4872    5.5985 C.ar      1 <0>        -0.1441
     21 C17         2.1929   -6.6042    4.5801 C.ar      1 <0>        -0.0895
     22 C18         2.5632   -5.3063    4.8788 C.ar      1 <0>        -0.1088
     23 C19         2.6265   -4.8913    6.1959 C.ar      1 <0>        -0.0885
     24 C20         2.3190   -5.7741    7.2142 C.ar      1 <0>        -0.1115
     25 C21         1.9445   -7.0707    6.9153 C.ar      1 <0>        -0.0863
     26 N4          0.6706   -0.4831   -1.2196 N.4       1 <0>        -0.5032
     27 C22        -0.1015   -0.1056   -2.4110 C.3       1 <0>        -0.0474
     28 C23         0.6229   -0.5982   -3.6654 C.3       1 <0>         0.0877
     29 H1          0.7220   -1.6829   -3.6253 H         1 <0>         0.1330
     30 C24        -0.1812   -0.2050   -4.9063 C.3       1 <0>         0.0298
     31 O2          0.4331   -0.7644   -6.0689 O.3       1 <0>        -0.3031
     32 C25        -0.1607   -0.5083   -7.2642 C.ar      1 <0>         0.1144
     33 C26        -1.3077    0.2703   -7.3175 C.ar      1 <0>        -0.2094
     34 C27        -1.9091    0.5296   -8.5338 C.ar      1 <0>        -0.0797
     35 C28        -1.3692    0.0135   -9.6974 C.ar      1 <0>        -0.1455
     36 C29        -0.2263   -0.7631   -9.6468 C.ar      1 <0>        -0.0759
     37 C30         0.3824   -1.0202   -8.4337 C.ar      1 <0>        -0.1442
     38 O3          1.9206   -0.0034   -3.7306 O.3       1 <0>        -0.5433
     39 H2          0.9665    1.9025   -0.0149 H         1 <0>         0.0864
     40 H3         -0.5793    1.8757   -0.8971 H         1 <0>         0.0840
     41 H4         -0.5701    1.8706    0.8828 H         1 <0>         0.1105
     42 H5         -1.0455   -0.3929   -0.0111 H         1 <0>         0.1413
     43 H6          1.7566   -0.2014    1.1807 H         1 <0>         0.1016
     44 H7          0.2491   -0.0865    2.1201 H         1 <0>         0.1242
     45 H8         -1.1843   -2.0239    2.4115 H         1 <0>         0.1355
     46 H9         -1.3151   -4.4795    2.5119 H         1 <0>         0.1440
     47 H10         2.3165   -4.7554    0.2711 H         1 <0>         0.1382
     48 H11         2.4334   -2.2991    0.1686 H         1 <0>         0.1315
     49 H12         0.7258   -6.7027    0.7014 H         1 <0>         0.4216
     50 H13        -0.6319   -8.7082    1.8359 H         1 <0>         0.1557
     51 H14         0.9754   -8.6358    2.5972 H         1 <0>         0.1501
     52 H15        -3.0446   -9.4611    5.9568 H         1 <0>         0.2285
     53 H16        -0.6768   -9.5802    7.0840 H         1 <0>         0.2268
     54 H17         1.7829   -9.5621    6.0867 H         1 <0>         0.1386
     55 H18         1.9717   -9.2165    4.3508 H         1 <0>         0.1231
     56 H19         2.1435   -6.9284    3.5511 H         1 <0>         0.1086
     57 H20         2.8035   -4.6166    4.0832 H         1 <0>         0.1231
     58 H21         2.9165   -3.8775    6.4293 H         1 <0>         0.1312
     59 H22         2.3687   -5.4500    8.2432 H         1 <0>         0.1351
     60 H23         1.7007   -7.7594    7.7108 H         1 <0>         0.1300
     61 H24         1.5869   -0.0631   -1.2656 H         1 <0>         0.4310
     62 H25        -1.0913   -0.5592   -2.3613 H         1 <0>         0.1464
     63 H26        -0.2006    0.9792   -2.4511 H         1 <0>         0.1439
     64 H27        -1.1989   -0.5844   -4.8149 H         1 <0>         0.0804
     65 H28        -0.2048    0.8811   -4.9948 H         1 <0>         0.0774
     66 H29        -1.7303    0.6730   -6.4089 H         1 <0>         0.1228
     67 H30        -2.8021    1.1356   -8.5759 H         1 <0>         0.1292
     68 H31        -1.8411    0.2171  -10.6473 H         1 <0>         0.1308
     69 H32         0.1933   -1.1654  -10.5570 H         1 <0>         0.1360
     70 H33         1.2776   -1.6232   -8.3952 H         1 <0>         0.1329
     71 H34         1.9090    0.9628   -3.7687 H         1 <0>         0.3915
     72 H35         0.7623   -1.4872   -1.1825 H         1 <0>         0.4251
     73 H36        -2.6407   -8.7500    3.5534 H         1 <0>         0.4615
@<TRIPOS>BOND
     1    1    2 1
     2    1   39 1
     3    1   40 1
     4    1   41 1
     5    2    3 1
     6    2   26 1
     7    2   42 1
     8    3    4 1
     9    3   43 1
    10    3   44 1
    11    4    9 ar
    12    4    5 ar
    13    5    6 ar
    14    5   45 1
    15    6    7 ar
    16    6   46 1
    17    7    8 ar
    18    7   10 1
    19    8    9 ar
    20    8   47 1
    21    9   48 1
    22   10   11 am
    23   10   49 1
    24   11   12 2
    25   11   13 1
    26   13   14 1
    27   13   50 1
    28   13   51 1
    29   14   18 1
    30   14   15 2
    31   15   16 1
    32   15   73 1
    33   16   17 2
    34   16   52 1
    35   17   18 1
    36   17   53 1
    37   18   19 1
    38   19   20 1
    39   19   54 1
    40   19   55 1
    41   20   25 ar
    42   20   21 ar
    43   21   22 ar
    44   21   56 1
    45   22   23 ar
    46   22   57 1
    47   23   24 ar
    48   23   58 1
    49   24   25 ar
    50   24   59 1
    51   25   60 1
    52   26   27 1
    53   26   61 1
    54   26   72 1
    55   27   28 1
    56   27   62 1
    57   27   63 1
    58   28   29 1
    59   28   30 1
    60   28   38 1
    61   30   31 1
    62   30   64 1
    63   30   65 1
    64   31   32 1
    65   32   37 ar
    66   32   33 ar
    67   33   34 ar
    68   33   66 1
    69   34   35 ar
    70   34   67 1
    71   35   36 ar
    72   35   68 1
    73   36   37 ar
    74   36   69 1
    75   37   70 1
    76   38   71 1
@<TRIPOS>MOLECULE
CHEMBL466088
   72    75     0     0     0
SMALL
USER_CHARGES

@<TRIPOS>ATOM
      1 C1          1.4356    1.6428    0.3205 C.3       1 <0>        -0.1841
      2 C2          1.3245    0.1175    0.2771 C.3       1 <0>         0.0287
      3 C3          2.0102   -0.4082   -0.9856 C.3       1 <0>        -0.0952
      4 C4          2.0087   -1.9151   -0.9678 C.ar      1 <0>        -0.1484
      5 C5          3.0594   -2.5992   -0.3844 C.ar      1 <0>        -0.0807
      6 C6          3.0611   -3.9802   -0.3665 C.ar      1 <0>        -0.1114
      7 C7          2.0058   -4.6817   -0.9346 C.ar      1 <0>         0.1705
      8 C8          0.9519   -3.9918   -1.5193 C.ar      1 <0>        -0.1380
      9 C9          0.9539   -2.6107   -1.5297 C.ar      1 <0>        -0.1186
     10 N1          2.0047   -6.0809   -0.9185 N.am      1 <0>        -0.6789
     11 C10         2.5598   -6.7433    0.1157 C.2       1 <0>         0.5201
     12 O1          2.9768   -6.1298    1.0752 O.2       1 <0>        -0.4962
     13 C11         2.6623   -8.2464    0.0798 C.3       1 <0>        -0.0570
     14 C12         3.3165   -8.7357    1.3462 C.2       1 <0>         0.2151
     15 N2          4.6019   -8.8188    1.5553 N.2       1 <0>        -0.4729
     16 C13         4.8194   -9.2945    2.7903 C.2       1 <0>        -0.0218
     17 C14         3.6233   -9.5146    3.3686 C.2       1 <0>        -0.0437
     18 N3          2.6695   -9.1552    2.4549 N.pl3     1 <0>        -0.4435
     19 C15         1.2180   -9.2170    2.6434 C.3       1 <0>         0.1468
     20 C16         0.6946  -10.5176    2.0908 C.ar      1 <0>        -0.1212
     21 C17         0.1958  -10.5704    0.8026 C.ar      1 <0>        -0.1076
     22 C18        -0.2843  -11.7635    0.2957 C.ar      1 <0>        -0.1170
     23 C19        -0.2653  -12.9038    1.0767 C.ar      1 <0>        -0.1054
     24 C20         0.2343  -12.8512    2.3646 C.ar      1 <0>        -0.1146
     25 C21         0.7184  -11.6591    2.8700 C.ar      1 <0>        -0.0956
     26 N4         -0.0925   -0.2700    0.2622 N.4       1 <0>        -0.5026
     27 C22        -0.7227    0.1298    1.5275 C.3       1 <0>        -0.0466
     28 C23        -2.1985   -0.2738    1.5120 C.3       1 <0>         0.0868
     29 H1         -2.2785   -1.3541    1.3917 H         1 <0>         0.1342
     30 C24        -2.8549    0.1426    2.8298 C.3       1 <0>         0.0303
     31 O2         -4.2008   -0.3364    2.8638 O.3       1 <0>        -0.3025
     32 C25        -4.9297   -0.0502    3.9745 C.ar      1 <0>         0.1168
     33 C26        -4.3631    0.6817    5.0079 C.ar      1 <0>        -0.2095
     34 C27        -5.1063    0.9717    6.1357 C.ar      1 <0>        -0.0798
     35 C28        -6.4137    0.5329    6.2352 C.ar      1 <0>        -0.1477
     36 C29        -6.9806   -0.1970    5.2068 C.ar      1 <0>        -0.0766
     37 C30        -6.2435   -0.4844    4.0743 C.ar      1 <0>        -0.1449
     38 O3         -2.8588    0.3768    0.4245 O.3       1 <0>        -0.5428
     39 H2          2.4870    1.9303    0.3315 H         1 <0>         0.1096
     40 H3          0.9521    2.0675   -0.5592 H         1 <0>         0.0847
     41 H4          0.9471    2.0173    1.2201 H         1 <0>         0.0813
     42 H5          1.8080   -0.3073    1.1568 H         1 <0>         0.1414
     43 H6          1.4722   -0.0547   -1.8652 H         1 <0>         0.0984
     44 H7          3.0378   -0.0462   -1.0184 H         1 <0>         0.1221
     45 H8          3.8798   -2.0530    0.0572 H         1 <0>         0.1331
     46 H9          3.8823   -4.5139    0.0886 H         1 <0>         0.1444
     47 H10         0.1300   -4.5345   -1.9623 H         1 <0>         0.1353
     48 H11         0.1327   -2.0734   -1.9805 H         1 <0>         0.1265
     49 H12         1.6044   -6.5741   -1.6516 H         1 <0>         0.4176
     50 H13         1.6644   -8.6768   -0.0034 H         1 <0>         0.1116
     51 H14         3.2614   -8.5493   -0.7790 H         1 <0>         0.1325
     52 H15         5.7846   -9.4703    3.2419 H         1 <0>         0.1729
     53 H16         3.4499   -9.8972    4.3636 H         1 <0>         0.1763
     54 H17         0.9867   -9.1547    3.7067 H         1 <0>         0.1048
     55 H18         0.7479   -8.3844    2.1200 H         1 <0>         0.0930
     56 H19         0.1809   -9.6795    0.1924 H         1 <0>         0.1184
     57 H20        -0.6746  -11.8045   -0.7105 H         1 <0>         0.1278
     58 H21        -0.6411  -13.8358    0.6809 H         1 <0>         0.1282
     59 H22         0.2489  -13.7421    2.9749 H         1 <0>         0.1286
     60 H23         1.1122  -11.6189    3.8749 H         1 <0>         0.1238
     61 H24        -0.5587    0.1894   -0.5057 H         1 <0>         0.4293
     62 H25        -0.2190   -0.3665    2.3570 H         1 <0>         0.1463
     63 H26        -0.6427    1.2102    1.6478 H         1 <0>         0.1423
     64 H27        -2.2968   -0.2826    3.6640 H         1 <0>         0.0812
     65 H28        -2.8540    1.2298    2.9086 H         1 <0>         0.0769
     66 H29        -3.3417    1.0240    4.9309 H         1 <0>         0.1235
     67 H30        -4.6656    1.5414    6.9405 H         1 <0>         0.1285
     68 H31        -6.9930    0.7604    7.1179 H         1 <0>         0.1295
     69 H32        -8.0019   -0.5390    5.2871 H         1 <0>         0.1350
     70 H33        -6.6882   -1.0508    3.2694 H         1 <0>         0.1329
     71 H34        -2.8275    1.3424    0.4663 H         1 <0>         0.3896
     72 H35        -0.1665   -1.2701    0.1508 H         1 <0>         0.4280
@<TRIPOS>BOND
     1    1    2 1
     2    1   39 1
     3    1   40 1
     4    1   41 1
     5    2    3 1
     6    2   26 1
     7    2   42 1
     8    3    4 1
     9    3   43 1
    10    3   44 1
    11    4    9 ar
    12    4    5 ar
    13    5    6 ar
    14    5   45 1
    15    6    7 ar
    16    6   46 1
    17    7    8 ar
    18    7   10 1
    19    8    9 ar
    20    8   47 1
    21    9   48 1
    22   10   11 am
    23   10   49 1
    24   11   12 2
    25   11   13 1
    26   13   14 1
    27   13   50 1
    28   13   51 1
    29   14   18 1
    30   14   15 2
    31   15   16 1
    32   16   17 2
    33   16   52 1
    34   17   18 1
    35   17   53 1
    36   18   19 1
    37   19   20 1
    38   19   54 1
    39   19   55 1
    40   20   25 ar
    41   20   21 ar
    42   21   22 ar
    43   21   56 1
    44   22   23 ar
    45   22   57 1
    46   23   24 ar
    47   23   58 1
    48   24   25 ar
    49   24   59 1
    50   25   60 1
    51   26   27 1
    52   26   61 1
    53   26   72 1
    54   27   28 1
    55   27   62 1
    56   27   63 1
    57   28   29 1
    58   28   30 1
    59   28   38 1
    60   30   31 1
    61   30   64 1
    62   30   65 1
    63   31   32 1
    64   32   37 ar
    65   32   33 ar
    66   33   34 ar
    67   33   66 1
    68   34   35 ar
    69   34   67 1
    70   35   36 ar
    71   35   68 1
    72   36   37 ar
    73   36   69 1
    74   37   70 1
    75   38   71 1
@<TRIPOS>MOLECULE
CHEMBL466088
   73    76     0     0     0
SMALL
USER_CHARGES

@<TRIPOS>ATOM
      1 C1         -0.0219    1.5176    0.0500 C.3       1 <0>        -0.1866
      2 C2         -0.0020   -0.0122    0.0334 C.3       1 <0>         0.0301
      3 C3          0.7202   -0.4992   -1.2244 C.3       1 <0>        -0.1012
      4 C4          0.6331   -2.0016   -1.3038 C.ar      1 <0>        -0.1315
      5 C5          1.6107   -2.7815   -0.7136 C.ar      1 <0>        -0.1185
      6 C6          1.5338   -4.1586   -0.7845 C.ar      1 <0>        -0.1046
      7 C7          0.4730   -4.7600   -1.4490 C.ar      1 <0>         0.1511
      8 C8         -0.5074   -3.9740   -2.0402 C.ar      1 <0>        -0.1265
      9 C9         -0.4273   -2.5974   -1.9616 C.ar      1 <0>        -0.0822
     10 N1          0.3924   -6.1550   -1.5230 N.am      1 <0>        -0.6649
     11 C10         1.5168   -6.8902   -1.6309 C.2       1 <0>         0.5150
     12 O1          2.6016   -6.3503   -1.5794 O.2       1 <0>        -0.4915
     13 C11         1.4261   -8.3831   -1.8153 C.3       1 <0>        -0.0997
     14 C12         2.8140   -8.9631   -1.9077 C.cat     1 <0>         0.3159
     15 N2          3.5634   -9.3069   -0.8962 N.pl3     1 <0>        -0.4639
     16 C13         4.7308   -9.7843   -1.3528 C.2       1 <0>         0.0141
     17 C14         4.7036   -9.7344   -2.6983 C.2       1 <0>         0.0355
     18 N3          3.4858   -9.2184   -3.0509 N.pl3     1 <0>        -0.3877
     19 C15         3.0026   -8.9843   -4.4140 C.3       1 <0>         0.1353
     20 C16         3.2777   -7.5554   -4.8059 C.ar      1 <0>        -0.1440
     21 C17         2.3388   -6.5745   -4.5465 C.ar      1 <0>        -0.0893
     22 C18         2.5910   -5.2638   -4.9060 C.ar      1 <0>        -0.1087
     23 C19         3.7824   -4.9338   -5.5245 C.ar      1 <0>        -0.0886
     24 C20         4.7217   -5.9145   -5.7832 C.ar      1 <0>        -0.1117
     25 C21         4.4712   -7.2245   -5.4198 C.ar      1 <0>        -0.0864
     26 N4          0.7021   -0.5057    1.2244 N.4       1 <0>        -0.5039
     27 C22        -0.0562   -0.1400    2.4282 C.3       1 <0>        -0.0470
     28 C23         0.6772   -0.6540    3.6687 C.3       1 <0>         0.0866
     29 H1          1.6702   -0.2069    3.7150 H         1 <0>         0.1365
     30 C24        -0.1126   -0.2730    4.9225 C.3       1 <0>         0.0302
     31 O2          0.6282   -0.6498    6.0849 O.3       1 <0>        -0.3035
     32 C25         0.0632   -0.3798    7.2911 C.ar      1 <0>         0.1142
     33 C26        -1.1814    0.2299    7.3544 C.ar      1 <0>        -0.2092
     34 C27        -1.7539    0.5028    8.5817 C.ar      1 <0>        -0.0793
     35 C28        -1.0873    0.1693    9.7462 C.ar      1 <0>        -0.1454
     36 C29         0.1534   -0.4380    9.6858 C.ar      1 <0>        -0.0760
     37 C30         0.7274   -0.7186    8.4610 C.ar      1 <0>        -0.1445
     38 O3          0.7980   -2.0760    3.5956 O.3       1 <0>        -0.5444
     39 H2          1.0009    1.8943    0.0495 H         1 <0>         0.0861
     40 H3         -0.5444    1.8838   -0.8338 H         1 <0>         0.1111
     41 H4         -0.5365    1.8646    0.9461 H         1 <0>         0.0846
     42 H5         -1.0249   -0.3889    0.0339 H         1 <0>         0.1417
     43 H6          0.2511   -0.0611   -2.1054 H         1 <0>         0.1250
     44 H7          1.7668   -0.1977   -1.1822 H         1 <0>         0.1006
     45 H8          2.4354   -2.3132   -0.1969 H         1 <0>         0.1274
     46 H9          2.2980   -4.7672   -0.3240 H         1 <0>         0.1442
     47 H10        -1.3334   -4.4387   -2.5581 H         1 <0>         0.1379
     48 H11        -1.1915   -1.9857   -2.4177 H         1 <0>         0.1384
     49 H12        -0.4728   -6.5929   -1.4967 H         1 <0>         0.4219
     50 H13         0.9042   -8.8232   -0.9656 H         1 <0>         0.1558
     51 H14         0.8786   -8.6034   -2.7317 H         1 <0>         0.1502
     52 H15         5.5490  -10.1455   -0.7475 H         1 <0>         0.2284
     53 H16         5.4900  -10.0455   -3.3700 H         1 <0>         0.2267
     54 H17         3.5170   -9.6552   -5.1021 H         1 <0>         0.1386
     55 H18         1.9299   -9.1727   -4.4566 H         1 <0>         0.1232
     56 H19         1.4080   -6.8324   -4.0632 H         1 <0>         0.1087
     57 H20         1.8572   -4.4976   -4.7039 H         1 <0>         0.1234
     58 H21         3.9792   -3.9099   -5.8060 H         1 <0>         0.1310
     59 H22         5.6524   -5.6568   -6.2667 H         1 <0>         0.1350
     60 H23         5.2067   -7.9901   -5.6185 H         1 <0>         0.1299
     61 H24         0.7874   -1.5098    1.1728 H         1 <0>         0.4281
     62 H25        -0.1483    0.9447    2.4840 H         1 <0>         0.1511
     63 H26        -1.0492   -0.5870    2.3819 H         1 <0>         0.1400
     64 H27        -0.2814    0.8038    4.9324 H         1 <0>         0.0825
     65 H28        -1.0716   -0.7911    4.9192 H         1 <0>         0.0760
     66 H29        -1.7021    0.4912    6.4450 H         1 <0>         0.1230
     67 H30        -2.7227    0.9774    8.6315 H         1 <0>         0.1295
     68 H31        -1.5364    0.3839   10.7047 H         1 <0>         0.1309
     69 H32         0.6722   -0.6972   10.5969 H         1 <0>         0.1360
     70 H33         1.6945   -1.1970    8.4143 H         1 <0>         0.1325
     71 H34        -0.0488   -2.5409    3.5516 H         1 <0>         0.3878
     72 H35         1.6213   -0.0918    1.2673 H         1 <0>         0.4277
     73 H36         3.3154   -9.2295    0.0383 H         1 <0>         0.4614
@<TRIPOS>BOND
     1    1    2 1
     2    1   39 1
     3    1   40 1
     4    1   41 1
     5    2    3 1
     6    2   26 1
     7    2   42 1
     8    3    4 1
     9    3   43 1
    10    3   44 1
    11    4    9 ar
    12    4    5 ar
    13    5    6 ar
    14    5   45 1
    15    6    7 ar
    16    6   46 1
    17    7    8 ar
    18    7   10 1
    19    8    9 ar
    20    8   47 1
    21    9   48 1
    22   10   11 am
    23   10   49 1
    24   11   12 2
    25   11   13 1
    26   13   14 1
    27   13   50 1
    28   13   51 1
    29   14   18 1
    30   14   15 2
    31   15   16 1
    32   15   73 1
    33   16   17 2
    34   16   52 1
    35   17   18 1
    36   17   53 1
    37   18   19 1
    38   19   20 1
    39   19   54 1
    40   19   55 1
    41   20   25 ar
    42   20   21 ar
    43   21   22 ar
    44   21   56 1
    45   22   23 ar
    46   22   57 1
    47   23   24 ar
    48   23   58 1
    49   24   25 ar
    50   24   59 1
    51   25   60 1
    52   26   27 1
    53   26   61 1
    54   26   72 1
    55   27   28 1
    56   27   62 1
    57   27   63 1
    58   28   29 1
    59   28   30 1
    60   28   38 1
    61   30   31 1
    62   30   64 1
    63   30   65 1
    64   31   32 1
    65   32   37 ar
    66   32   33 ar
    67   33   34 ar
    68   33   66 1
    69   34   35 ar
    70   34   67 1
    71   35   36 ar
    72   35   68 1
    73   36   37 ar
    74   36   69 1
    75   37   70 1
    76   38   71 1
@<TRIPOS>MOLECULE
CHEMBL466088
   72    75     0     0     0
SMALL
USER_CHARGES

@<TRIPOS>ATOM
      1 C1         -0.3965    1.4133   -1.4297 C.3       1 <0>        -0.1846
      2 C2         -0.3452   -0.1107   -1.3046 C.3       1 <0>         0.0294
      3 C3         -1.7698   -0.6670   -1.2598 C.3       1 <0>        -0.0956
      4 C4         -1.7213   -2.1529   -1.0135 C.ar      1 <0>        -0.1494
      5 C5         -1.6545   -3.0276   -2.0824 C.ar      1 <0>        -0.1154
      6 C6         -1.6100   -4.3900   -1.8601 C.ar      1 <0>        -0.1101
      7 C7         -1.6319   -4.8811   -0.5613 C.ar      1 <0>         0.1703
      8 C8         -1.6986   -4.0000    0.5101 C.ar      1 <0>        -0.1377
      9 C9         -1.7380   -2.6386    0.2811 C.ar      1 <0>        -0.0819
     10 N1         -1.5874   -6.2609   -0.3326 N.am      1 <0>        -0.6786
     11 C10        -0.8964   -7.0606   -1.1689 C.2       1 <0>         0.5208
     12 O1         -0.2375   -6.5765   -2.0647 O.2       1 <0>        -0.4972
     13 C11        -0.9425   -8.5563   -0.9910 C.3       1 <0>        -0.0576
     14 C12        -0.0916   -9.2142   -2.0466 C.2       1 <0>         0.2157
     15 N2         -0.4772   -9.5129   -3.2570 N.2       1 <0>        -0.4732
     16 C13         0.5404  -10.0862   -3.9166 C.2       1 <0>        -0.0220
     17 C14         1.5966  -10.1449   -3.0832 C.2       1 <0>        -0.0437
     18 N3          1.1978   -9.5870   -1.8985 N.pl3     1 <0>        -0.4431
     19 C15         2.0162   -9.4270   -0.6940 C.3       1 <0>         0.1469
     20 C16         1.7832  -10.5943    0.2303 C.ar      1 <0>        -0.1214
     21 C17         0.8550  -10.4941    1.2498 C.ar      1 <0>        -0.1075
     22 C18         0.6413  -11.5648    2.0976 C.ar      1 <0>        -0.1169
     23 C19         1.3555  -12.7358    1.9257 C.ar      1 <0>        -0.1054
     24 C20         2.2831  -12.8363    0.9057 C.ar      1 <0>        -0.1147
     25 C21         2.4937  -11.7671    0.0552 C.ar      1 <0>        -0.0956
     26 N4          0.3641   -0.6735   -2.4614 N.4       1 <0>        -0.5040
     27 C22         1.7657   -0.2342   -2.4375 C.3       1 <0>        -0.0460
     28 C23         2.5044   -0.8203   -3.6423 C.3       1 <0>         0.0850
     29 H1          2.0312   -0.4754   -4.5617 H         1 <0>         0.1356
     30 C24         3.9642   -0.3628   -3.6175 C.3       1 <0>         0.0310
     31 O2          4.6247   -0.8131   -4.8020 O.3       1 <0>        -0.3018
     32 C25         5.9374   -0.4885   -4.9376 C.ar      1 <0>         0.1173
     33 C26         6.5781    0.2432   -3.9483 C.ar      1 <0>        -0.2098
     34 C27         7.9127    0.5715   -4.0884 C.ar      1 <0>        -0.0801
     35 C28         8.6097    0.1717   -5.2136 C.ar      1 <0>        -0.1481
     36 C29         7.9734   -0.5572   -6.2012 C.ar      1 <0>        -0.0765
     37 C30         6.6405   -0.8933   -6.0630 C.ar      1 <0>        -0.1447
     38 O3          2.4514   -2.2472   -3.5856 O.3       1 <0>        -0.5400
     39 H2          0.6184    1.8096   -1.4616 H         1 <0>         0.0819
     40 H3         -0.9216    1.6852   -2.3454 H         1 <0>         0.0850
     41 H4         -0.9228    1.8308   -0.5714 H         1 <0>         0.1093
     42 H5          0.1799   -0.3826   -0.3889 H         1 <0>         0.1402
     43 H6         -2.3236   -0.1832   -0.4553 H         1 <0>         0.1219
     44 H7         -2.2659   -0.4723   -2.2106 H         1 <0>         0.0982
     45 H8         -1.6375   -2.6451   -3.0923 H         1 <0>         0.1249
     46 H9         -1.5585   -5.0727   -2.6954 H         1 <0>         0.1446
     47 H10        -1.7162   -4.3789    1.5213 H         1 <0>         0.1351
     48 H11        -1.7857   -1.9527    1.1140 H         1 <0>         0.1334
     49 H12        -2.0538   -6.6417    0.4278 H         1 <0>         0.4178
     50 H13        -0.5619   -8.8166   -0.0033 H         1 <0>         0.1116
     51 H14        -1.9718   -8.9020   -1.0865 H         1 <0>         0.1323
     52 H15         0.5168  -10.4388   -4.9371 H         1 <0>         0.1726
     53 H16         2.5721  -10.5504   -3.3078 H         1 <0>         0.1761
     54 H17         3.0693   -9.3887   -0.9726 H         1 <0>         0.1047
     55 H18         1.7405   -8.5020   -0.1876 H         1 <0>         0.0932
     56 H19         0.2970   -9.5793    1.3841 H         1 <0>         0.1185
     57 H20        -0.0834  -11.4864    2.8945 H         1 <0>         0.1279
     58 H21         1.1891  -13.5721    2.5885 H         1 <0>         0.1282
     59 H22         2.8414  -13.7510    0.7716 H         1 <0>         0.1286
     60 H23         3.2157  -11.8468   -0.7440 H         1 <0>         0.1237
     61 H24         0.3267   -1.6810   -2.4213 H         1 <0>         0.4322
     62 H25         1.8061    0.8542   -2.4808 H         1 <0>         0.1487
     63 H26         2.2389   -0.5791   -1.5181 H         1 <0>         0.1385
     64 H27         4.0031    0.7255   -3.5711 H         1 <0>         0.0812
     65 H28         4.4614   -0.7817   -2.7426 H         1 <0>         0.0756
     66 H29         6.0339    0.5563   -3.0696 H         1 <0>         0.1232
     67 H30         8.4119    1.1411   -3.3185 H         1 <0>         0.1282
     68 H31         9.6529    0.4296   -5.3214 H         1 <0>         0.1293
     69 H32         8.5199   -0.8680   -7.0793 H         1 <0>         0.1350
     70 H33         6.1451   -1.4665   -6.8326 H         1 <0>         0.1332
     71 H34         2.8552   -2.6245   -2.7921 H         1 <0>         0.3889
     72 H35        -0.0740   -0.3542   -3.3124 H         1 <0>         0.4269
@<TRIPOS>BOND
     1    1    2 1
     2    1   39 1
     3    1   40 1
     4    1   41 1
     5    2    3 1
     6    2   26 1
     7    2   42 1
     8    3    4 1
     9    3   43 1
    10    3   44 1
    11    4    9 ar
    12    4    5 ar
    13    5    6 ar
    14    5   45 1
    15    6    7 ar
    16    6   46 1
    17    7    8 ar
    18    7   10 1
    19    8    9 ar
    20    8   47 1
    21    9   48 1
    22   10   11 am
    23   10   49 1
    24   11   12 2
    25   11   13 1
    26   13   14 1
    27   13   50 1
    28   13   51 1
    29   14   18 1
    30   14   15 2
    31   15   16 1
    32   16   17 2
    33   16   52 1
    34   17   18 1
    35   17   53 1
    36   18   19 1
    37   19   20 1
    38   19   54 1
    39   19   55 1
    40   20   25 ar
    41   20   21 ar
    42   21   22 ar
    43   21   56 1
    44   22   23 ar
    45   22   57 1
    46   23   24 ar
    47   23   58 1
    48   24   25 ar
    49   24   59 1
    50   25   60 1
    51   26   27 1
    52   26   61 1
    53   26   72 1
    54   27   28 1
    55   27   62 1
    56   27   63 1
    57   28   29 1
    58   28   30 1
    59   28   38 1
    60   30   31 1
    61   30   64 1
    62   30   65 1
    63   31   32 1
    64   32   37 ar
    65   32   33 ar
    66   33   34 ar
    67   33   66 1
    68   34   35 ar
    69   34   67 1
    70   35   36 ar
    71   35   68 1
    72   36   37 ar
    73   36   69 1
    74   37   70 1
    75   38   71 1
@<TRIPOS>MOLECULE
CHEMBL1221636
   47    49     0     0     0
SMALL
USER_CHARGES

@<TRIPOS>ATOM
      1 C1         -0.0167    1.3781    0.0096 C.ar      1 <0>        -0.1197
      2 C2          1.1709    2.0855    0.0021 C.ar      1 <0>        -0.1167
      3 C3          2.3773    1.4107   -0.0130 C.ar      1 <0>        -0.1172
      4 C4          2.3960    0.0285   -0.0201 C.ar      1 <0>        -0.0920
      5 C5          1.2084   -0.6789   -0.0117 C.ar      1 <0>        -0.1175
      6 C6          0.0021   -0.0041    0.0020 C.ar      1 <0>        -0.1170
      7 C7          3.7112   -0.7071   -0.0376 C.3       1 <0>        -0.0791
      8 C8          4.1714   -0.9633    1.3989 C.3       1 <0>        -0.1121
      9 C9          5.5066   -1.7102    1.3812 C.3       1 <0>        -0.1494
     10 C10         5.9667   -1.9663    2.8177 C.3       1 <0>        -0.0106
     11 N1          7.2487   -2.6834    2.8007 N.4       1 <0>        -0.5053
     12 C11         7.6906   -2.9294    4.1799 C.3       1 <0>        -0.0454
     13 C12         9.0258   -3.6762    4.1622 C.3       1 <0>         0.1623
     14 H1          9.7719   -3.0743    3.6435 H         1 <0>         0.1155
     15 C13         9.4790   -3.9285    5.5771 C.ar      1 <0>        -0.2346
     16 C14         9.1964   -5.1357    6.1927 C.ar      1 <0>        -0.0379
     17 C15         9.6228   -5.3459    7.4925 C.ar      1 <0>        -0.2398
     18 C16        10.3214   -4.3764    8.1808 C.ar      1 <0>         0.3003
     19 C17        10.6222   -3.1393    7.5778 C.ar      1 <0>        -0.0292
     20 C18        10.1799   -2.9631    6.2599 C.ar      1 <0>        -0.0475
     21 S1         10.7448   -1.3274    5.8584 S.3       1 <0>        -0.1198
     22 C19        11.5340   -0.9517    7.4152 C.2       1 <0>         0.5380
     23 O1         12.1175    0.0632    7.7486 O.2       1 <0>        -0.4755
     24 N2         11.3104   -2.0706    8.1322 N.am      1 <0>        -0.6197
     25 H2         11.6446   -2.1338    9.0406 H         1 <0>         0.4156
     26 O2         10.7244   -4.6173    9.4569 O.3       1 <0>        -0.6860
     27 O3          8.8648   -4.9237    3.4839 O.3       1 <0>        -0.5549
     28 H3         -0.9591    1.9053    0.0259 H         1 <0>         0.1235
     29 H4          1.1563    3.1654    0.0076 H         1 <0>         0.1237
     30 H5          3.3051    1.9634   -0.0196 H         1 <0>         0.1210
     31 H6          1.2231   -1.7588   -0.0176 H         1 <0>         0.1207
     32 H7         -0.9258   -0.5567    0.0082 H         1 <0>         0.1235
     33 H8          3.5884   -1.6586   -0.5549 H         1 <0>         0.0755
     34 H9          4.4573   -0.1052   -0.5563 H         1 <0>         0.0758
     35 H10         4.2941   -0.0118    1.9163 H         1 <0>         0.0756
     36 H11         3.4252   -1.5652    1.9176 H         1 <0>         0.0752
     37 H12         5.3838   -2.6617    0.8639 H         1 <0>         0.0874
     38 H13         6.2527   -1.1082    0.8625 H         1 <0>         0.0878
     39 H14         6.0895   -1.0148    3.3350 H         1 <0>         0.1308
     40 H15         5.2206   -2.5682    3.3364 H         1 <0>         0.1299
     41 H16         7.1351   -3.5642    2.3218 H         1 <0>         0.4282
     42 H17         7.8133   -1.9778    4.6972 H         1 <0>         0.1404
     43 H18         6.9444   -3.5313    4.6986 H         1 <0>         0.1358
     44 H19         8.6498   -5.9036    5.6656 H         1 <0>         0.1130
     45 H20         9.4041   -6.2862    7.9767 H         1 <0>         0.1175
     46 H21         8.2143   -5.5118    3.8914 H         1 <0>         0.3836
     47 H22         7.9394   -2.1262    2.3205 H         1 <0>         0.4265
@<TRIPOS>BOND
     1    1    6 ar
     2    1    2 ar
     3    1   28 1
     4    2    3 ar
     5    2   29 1
     6    3    4 ar
     7    3   30 1
     8    4    5 ar
     9    4    7 1
    10    5    6 ar
    11    5   31 1
    12    6   32 1
    13    7    8 1
    14    7   33 1
    15    7   34 1
    16    8    9 1
    17    8   35 1
    18    8   36 1
    19    9   10 1
    20    9   37 1
    21    9   38 1
    22   10   11 1
    23   10   39 1
    24   10   40 1
    25   11   12 1
    26   11   41 1
    27   11   47 1
    28   12   13 1
    29   12   42 1
    30   12   43 1
    31   13   14 1
    32   13   15 1
    33   13   27 1
    34   15   20 ar
    35   15   16 ar
    36   16   17 ar
    37   16   44 1
    38   17   18 ar
    39   17   45 1
    40   18   19 ar
    41   18   26 1
    42   19   24 1
    43   19   20 ar
    44   20   21 1
    45   21   22 1
    46   22   23 2
    47   22   24 am
    48   24   25 1
    49   27   46 1
@<TRIPOS>MOLECULE
CHEMBL1221637
   47    50     0     0     0
SMALL
USER_CHARGES

@<TRIPOS>ATOM
      1 C1         -0.0187    1.5258    0.0104 C.3       1 <0>        -0.1783
      2 C2          0.0021   -0.0041    0.0020 C.3       1 <0>         0.0782
      3 H1         -1.0205   -0.3814    0.0098 H         1 <0>         0.1441
      4 C3          0.7309   -0.5033    1.2229 C.ar      1 <0>        -0.1397
      5 C4          2.1246   -0.5094    1.2357 C.ar      1 <0>        -0.1335
      6 C5          2.8135   -0.9540    2.3220 C.ar      1 <0>        -0.0780
      7 C6          2.1121   -1.4142    3.4495 C.ar      1 <0>        -0.0428
      8 C7          2.7886   -1.8803    4.5898 C.ar      1 <0>        -0.1090
      9 C8          2.0761   -2.3180    5.6635 C.ar      1 <0>        -0.1005
     10 C9          0.6824   -2.3116    5.6508 C.ar      1 <0>        -0.1053
     11 C10        -0.0064   -1.8674    4.5644 C.ar      1 <0>        -0.1043
     12 C11         0.6950   -1.4076    3.4367 C.ar      1 <0>        -0.0526
     13 C12         0.0185   -0.9362    2.2986 C.ar      1 <0>        -0.0599
     14 N1          0.6897   -0.4778   -1.2066 N.4       1 <0>        -0.5028
     15 C13        -0.0856   -0.0931   -2.3936 C.3       1 <0>        -0.0493
     16 C14         0.6305   -0.5866   -3.6524 C.3       1 <0>         0.1632
     17 H2          0.7239   -1.6719   -3.6155 H         1 <0>         0.1156
     18 C15        -0.1648   -0.1919   -4.8701 C.ar      1 <0>        -0.2330
     19 C16         0.1454    0.9693   -5.5566 C.ar      1 <0>        -0.0378
     20 C17        -0.5980    1.3121   -6.6725 C.ar      1 <0>        -0.2398
     21 C18        -1.6380    0.5187   -7.1094 C.ar      1 <0>         0.3004
     22 C19        -1.9745   -0.6681   -6.4291 C.ar      1 <0>        -0.0293
     23 C20        -1.1977   -0.9865   -5.3072 C.ar      1 <0>        -0.0472
     24 S1         -1.9059   -2.5157   -4.7451 S.3       1 <0>        -0.1191
     25 C21        -3.1710   -2.6740   -5.9950 C.2       1 <0>         0.5377
     26 O1         -3.9998   -3.5547   -6.1333 O.2       1 <0>        -0.4760
     27 N2         -2.9844   -1.5664   -6.7396 N.am      1 <0>        -0.6198
     28 H3         -3.5541   -1.4021   -7.5073 H         1 <0>         0.4153
     29 O2         -2.3473    0.8866   -8.2095 O.3       1 <0>        -0.6866
     30 O3          1.9312    0.0013   -3.7219 O.3       1 <0>        -0.5545
     31 H4          1.0039    1.9031    0.0027 H         1 <0>         0.0820
     32 H5         -0.5459    1.8868   -0.8726 H         1 <0>         0.0874
     33 H6         -0.5289    1.8773    0.9072 H         1 <0>         0.1036
     34 H7          2.6660   -0.1563    0.3705 H         1 <0>         0.1213
     35 H8          3.8935   -0.9536    2.3173 H         1 <0>         0.1373
     36 H9          3.8683   -1.8914    4.6138 H         1 <0>         0.1336
     37 H10         2.5984   -2.6760    6.5384 H         1 <0>         0.1308
     38 H11         0.1410   -2.6648    6.5160 H         1 <0>         0.1309
     39 H12        -1.0864   -1.8686    4.5686 H         1 <0>         0.1334
     40 H13        -1.0612   -0.9213    2.2762 H         1 <0>         0.1376
     41 H14         1.6080   -0.0627   -1.2556 H         1 <0>         0.4248
     42 H15        -1.0777   -0.5415   -2.3406 H         1 <0>         0.1416
     43 H16        -0.1790    0.9922   -2.4305 H         1 <0>         0.1384
     44 H17         0.9570    1.6002   -5.2254 H         1 <0>         0.1130
     45 H18        -0.3595    2.2175   -7.2109 H         1 <0>         0.1173
     46 H19         1.9246    0.9676   -3.7575 H         1 <0>         0.3832
     47 H20         0.7761   -1.4825   -1.1724 H         1 <0>         0.4285
@<TRIPOS>BOND
     1    1    2 1
     2    1   31 1
     3    1   32 1
     4    1   33 1
     5    2    3 1
     6    2    4 1
     7    2   14 1
     8    4   13 ar
     9    4    5 ar
    10    5    6 ar
    11    5   34 1
    12    6    7 ar
    13    6   35 1
    14    7   12 ar
    15    7    8 ar
    16    8    9 ar
    17    8   36 1
    18    9   10 ar
    19    9   37 1
    20   10   11 ar
    21   10   38 1
    22   11   12 ar
    23   11   39 1
    24   12   13 ar
    25   13   40 1
    26   14   15 1
    27   14   41 1
    28   14   47 1
    29   15   16 1
    30   15   42 1
    31   15   43 1
    32   16   17 1
    33   16   18 1
    34   16   30 1
    35   18   23 ar
    36   18   19 ar
    37   19   20 ar
    38   19   44 1
    39   20   21 ar
    40   20   45 1
    41   21   22 ar
    42   21   29 1
    43   22   27 1
    44   22   23 ar
    45   23   24 1
    46   24   25 1
    47   25   26 2
    48   25   27 am
    49   27   28 1
    50   30   46 1
@<TRIPOS>MOLECULE
CHEMBL1221637
   46    49     0     0     0
SMALL
USER_CHARGES

@<TRIPOS>ATOM
      1 C1         -0.0187    1.5258    0.0104 C.3       1 <0>        -0.1776
      2 C2          0.0021   -0.0041    0.0020 C.3       1 <0>         0.1182
      3 H1          0.5123   -0.3556   -0.8948 H         1 <0>         0.0868
      4 C3         -1.4117   -0.5257    0.0127 C.ar      1 <0>        -0.0532
      5 C4         -2.1192   -0.5668    1.2129 C.ar      1 <0>        -0.0877
      6 C5         -3.3972   -1.0324    1.2573 C.ar      1 <0>        -0.1123
      7 C6         -4.0161   -1.4787    0.0772 C.ar      1 <0>        -0.0543
      8 C7         -5.3344   -1.9657    0.0835 C.ar      1 <0>        -0.1059
      9 C8         -5.9014   -2.3891   -1.0790 C.ar      1 <0>        -0.1227
     10 C9         -5.1941   -2.3477   -2.2792 C.ar      1 <0>        -0.1216
     11 C10        -3.9159   -1.8826   -2.3235 C.ar      1 <0>        -0.1055
     12 C11        -3.2969   -1.4366   -1.1433 C.ar      1 <0>        -0.0482
     13 C12        -1.9805   -0.9444   -1.1506 C.ar      1 <0>        -0.1082
     14 N1          0.7126   -0.4907    1.1921 N.3       1 <0>        -0.6762
     15 C13         2.1624   -0.5325    0.9593 C.3       1 <0>         0.0342
     16 C14         2.8665   -1.0431    2.2180 C.3       1 <0>         0.1759
     17 H2          2.5074   -2.0448    2.4542 H         1 <0>         0.1025
     18 C15         4.3539   -1.0861    1.9791 C.ar      1 <0>        -0.2015
     19 C16         5.1518   -0.0250    2.3710 C.ar      1 <0>        -0.0460
     20 C17         6.5153   -0.0861    2.1422 C.ar      1 <0>        -0.2452
     21 C18         7.0890   -1.1821    1.5328 C.ar      1 <0>         0.2914
     22 C19         6.3000   -2.2753    1.1242 C.ar      1 <0>        -0.0410
     23 C20         4.9249   -2.1815    1.3763 C.ar      1 <0>        -0.0470
     24 S1          4.2915   -3.7156    0.7427 S.3       1 <0>        -0.0955
     25 C21         5.8401   -4.4093    0.1872 C.2       1 <0>         0.5253
     26 O1          6.0455   -5.4817   -0.3507 O.2       1 <0>        -0.4945
     27 N2          6.7224   -3.4410    0.5031 N.am      1 <0>        -0.6194
     28 H3          7.6638   -3.5657    0.3051 H         1 <0>         0.4086
     29 O2          8.4323   -1.2077    1.3234 O.3       1 <0>        -0.7147
     30 O3          2.5847   -0.1661    3.3104 O.3       1 <0>        -0.5574
     31 H4          1.0039    1.9031    0.0027 H         1 <0>         0.0605
     32 H5         -0.5459    1.8868   -0.8726 H         1 <0>         0.0614
     33 H6         -0.5289    1.8773    0.9072 H         1 <0>         0.0593
     34 H7         -1.6459   -0.2244    2.1213 H         1 <0>         0.1237
     35 H8         -3.9329   -1.0590    2.1947 H         1 <0>         0.1249
     36 H9         -5.8945   -2.0040    1.0061 H         1 <0>         0.1241
     37 H10        -6.9145   -2.7632   -1.0713 H         1 <0>         0.1195
     38 H11        -5.6673   -2.6902   -3.1876 H         1 <0>         0.1198
     39 H12        -3.3798   -1.8567   -3.2608 H         1 <0>         0.1248
     40 H13        -1.4219   -0.9023   -2.0739 H         1 <0>         0.1246
     41 H14         0.4922    0.0720    2.0001 H         1 <0>         0.3453
     42 H15         2.3774   -1.2015    0.1260 H         1 <0>         0.0827
     43 H16         2.5215    0.4691    0.7231 H         1 <0>         0.0348
     44 H17         4.7157    0.8397    2.8490 H         1 <0>         0.1102
     45 H18         7.1414    0.7398    2.4460 H         1 <0>         0.1103
     46 H19         2.8774    0.7446    3.1693 H         1 <0>         0.3665
@<TRIPOS>BOND
     1    1    2 1
     2    1   31 1
     3    1   32 1
     4    1   33 1
     5    2    3 1
     6    2    4 1
     7    2   14 1
     8    4   13 ar
     9    4    5 ar
    10    5    6 ar
    11    5   34 1
    12    6    7 ar
    13    6   35 1
    14    7   12 ar
    15    7    8 ar
    16    8    9 ar
    17    8   36 1
    18    9   10 ar
    19    9   37 1
    20   10   11 ar
    21   10   38 1
    22   11   12 ar
    23   11   39 1
    24   12   13 ar
    25   13   40 1
    26   14   15 1
    27   14   41 1
    28   15   16 1
    29   15   42 1
    30   15   43 1
    31   16   17 1
    32   16   18 1
    33   16   30 1
    34   18   23 ar
    35   18   19 ar
    36   19   20 ar
    37   19   44 1
    38   20   21 ar
    39   20   45 1
    40   21   22 ar
    41   21   29 1
    42   22   27 1
    43   22   23 ar
    44   23   24 1
    45   24   25 1
    46   25   26 2
    47   25   27 am
    48   27   28 1
    49   30   46 1
@<TRIPOS>MOLECULE
CHEMBL1221634
   45    48     0     0     0
SMALL
USER_CHARGES

@<TRIPOS>ATOM
      1 C1          2.9546   -4.5583   -1.6379 C.ar      1 <0>        -0.0913
      2 C2          2.9886   -3.4454   -2.4577 C.ar      1 <0>        -0.1089
      3 C3          3.2430   -2.2029   -1.9155 C.ar      1 <0>        -0.1237
      4 C4          3.4679   -2.0602   -0.5522 C.ar      1 <0>        -0.1353
      5 C5          3.4391   -3.1689    0.2633 C.ar      1 <0>        -0.0400
      6 C6          3.1783   -4.4187   -0.2840 C.ar      1 <0>        -0.1144
      7 C7          3.6897   -3.0910    1.7466 C.3       1 <0>        -0.0943
      8 C8          3.5290   -1.6560    2.2440 C.3       1 <0>        -0.1152
      9 C9          4.3779   -0.7381    1.3565 C.3       1 <0>        -0.1419
     10 C10         3.7327   -0.6737   -0.0263 C.3       1 <0>         0.0815
     11 H1          2.7910   -0.1290    0.0414 H         1 <0>         0.1452
     12 N1          4.6334    0.0304   -0.9488 N.4       1 <0>        -0.5033
     13 C11         4.7901    1.4241   -0.5117 C.3       1 <0>        -0.0484
     14 C12         5.6218    2.1912   -1.5417 C.3       1 <0>         0.1634
     15 H2          5.1163    2.1678   -2.5071 H         1 <0>         0.1148
     16 C13         5.7826    3.6209   -1.0933 C.ar      1 <0>        -0.2331
     17 C14         6.9121    4.0067   -0.3923 C.ar      1 <0>        -0.0375
     18 C15         7.0390    5.3251    0.0092 C.ar      1 <0>        -0.2396
     19 C16         6.0626    6.2561   -0.2767 C.ar      1 <0>         0.3004
     20 C17         4.9035    5.8900   -0.9886 C.ar      1 <0>        -0.0291
     21 C18         4.8109    4.5488   -1.3837 C.ar      1 <0>        -0.0472
     22 S1          3.2557    4.4853   -2.2400 S.3       1 <0>        -0.1200
     23 C19         2.8021    6.2018   -2.0518 C.2       1 <0>         0.5379
     24 O1          1.8031    6.7739   -2.4472 O.2       1 <0>        -0.4758
     25 N2          3.8392    6.7016   -1.3513 N.am      1 <0>        -0.6196
     26 H3          3.8470    7.6408   -1.1090 H         1 <0>         0.4154
     27 O2          6.2205    7.5427    0.1338 O.3       1 <0>        -0.6865
     28 O3          6.9090    1.5825   -1.6632 O.3       1 <0>        -0.5542
     29 H4          2.7493   -5.5328   -2.0556 H         1 <0>         0.1340
     30 H5          2.8169   -3.5487   -3.5190 H         1 <0>         0.1347
     31 H6          3.2678   -1.3339   -2.5563 H         1 <0>         0.1208
     32 H7          3.1507   -5.2884    0.3558 H         1 <0>         0.1333
     33 H8          2.9780   -3.7331    2.2655 H         1 <0>         0.0891
     34 H9          4.7026   -3.4335    1.9584 H         1 <0>         0.0885
     35 H10         2.4815   -1.3609    2.1814 H         1 <0>         0.0782
     36 H11         3.8696   -1.5853    3.2770 H         1 <0>         0.0909
     37 H12         4.4151    0.2608    1.7911 H         1 <0>         0.0978
     38 H13         5.3875   -1.1402    1.2722 H         1 <0>         0.0898
     39 H14         5.5341   -0.4243   -0.9521 H         1 <0>         0.4276
     40 H15         3.8083    1.8884   -0.4191 H         1 <0>         0.1412
     41 H16         5.2956    1.4475    0.4537 H         1 <0>         0.1382
     42 H17         7.6843    3.2880   -0.1612 H         1 <0>         0.1131
     43 H18         7.9185    5.6303    0.5567 H         1 <0>         0.1174
     44 H19         7.4165    1.5681   -0.8402 H         1 <0>         0.3834
     45 H20         4.2437    0.0116   -1.8793 H         1 <0>         0.4229
@<TRIPOS>BOND
     1    1    6 ar
     2    1    2 ar
     3    1   29 1
     4    2    3 ar
     5    2   30 1
     6    3    4 ar
     7    3   31 1
     8    4   10 1
     9    4    5 ar
    10    5    6 ar
    11    5    7 1
    12    6   32 1
    13    7    8 1
    14    7   33 1
    15    7   34 1
    16    8    9 1
    17    8   35 1
    18    8   36 1
    19    9   10 1
    20    9   37 1
    21    9   38 1
    22   10   11 1
    23   10   12 1
    24   12   13 1
    25   12   39 1
    26   12   45 1
    27   13   14 1
    28   13   40 1
    29   13   41 1
    30   14   15 1
    31   14   16 1
    32   14   28 1
    33   16   21 ar
    34   16   17 ar
    35   17   18 ar
    36   17   42 1
    37   18   19 ar
    38   18   43 1
    39   19   20 ar
    40   19   27 1
    41   20   25 1
    42   20   21 ar
    43   21   22 1
    44   22   23 1
    45   23   24 2
    46   23   25 am
    47   25   26 1
    48   28   44 1
@<TRIPOS>MOLECULE
CHEMBL140908
   44    45     0     0     0
SMALL
USER_CHARGES

@<TRIPOS>ATOM
      1 C1         -0.0187    1.5258    0.0104 C.3       1 <0>        -0.1791
      2 C2          0.0021   -0.0041    0.0020 C.3       1 <0>         0.0549
      3 C3          0.7421   -0.5109    1.2415 C.3       1 <0>        -0.1797
      4 C4         -1.4333   -0.5336    0.0129 C.3       1 <0>        -0.1779
      5 N1          0.6897   -0.4778   -1.2066 N.4       1 <0>        -0.4983
      6 C5          2.0678    0.0307   -1.2170 C.3       1 <0>        -0.0511
      7 C6          2.7840   -0.4628   -2.4758 C.3       1 <0>         0.0879
      8 C7          4.2531   -0.0383   -2.4263 C.3       1 <0>         0.0281
      9 O1          4.9483   -0.5972   -3.5427 O.3       1 <0>        -0.2870
     10 C8          6.2745   -0.3145   -3.6488 C.ar      1 <0>         0.1800
     11 C9          6.8952    0.4792   -2.6954 C.ar      1 <0>        -0.2185
     12 C10         8.2438    0.7630   -2.8083 C.ar      1 <0>        -0.0394
     13 C11         8.9798    0.2604   -3.8630 C.ar      1 <0>        -0.1677
     14 C12         8.3718   -0.5382   -4.8270 C.ar      1 <0>         0.2036
     15 C13         7.0126   -0.8241   -4.7085 C.ar      1 <0>        -0.1687
     16 S1          6.2366   -1.8338   -5.9305 S.3       1 <0>        -0.0551
     17 C14         7.2182   -1.4762   -7.4189 C.3       1 <0>        -0.1356
     18 C15         8.6760   -1.4729   -7.0476 C.2       1 <0>         0.5231
     19 O2          9.4764   -1.8786   -7.8638 O.2       1 <0>        -0.5016
     20 N2          9.1329   -1.0398   -5.8797 N.am      1 <0>        -0.6551
     21 O3          2.1628    0.1050   -3.6307 O.3       1 <0>        -0.5402
     22 H1          1.0039    1.9031    0.0027 H         1 <0>         0.0806
     23 H2         -0.5459    1.8868   -0.8726 H         1 <0>         0.0837
     24 H3         -0.5289    1.8773    0.9072 H         1 <0>         0.1072
     25 H4          0.2319   -0.1594    2.1383 H         1 <0>         0.1073
     26 H5          0.7568   -1.6008    1.2356 H         1 <0>         0.0839
     27 H6          1.7647   -0.1336    1.2338 H         1 <0>         0.0811
     28 H7         -1.9605   -0.1726   -0.8702 H         1 <0>         0.0835
     29 H8         -1.4185   -1.6235    0.0069 H         1 <0>         0.0835
     30 H9         -1.9435   -0.1821    0.9097 H         1 <0>         0.1077
     31 H10         0.7033   -1.4867   -1.2121 H         1 <0>         0.4290
     32 H11         2.0530    1.1205   -1.2110 H         1 <0>         0.1421
     33 H12         2.5950   -0.3304   -0.3340 H         1 <0>         0.1477
     34 H13         2.7213   -1.5498   -2.5270 H         1 <0>         0.1351
     35 H14         4.3186    1.0490   -2.4647 H         1 <0>         0.0803
     36 H15         4.7039   -0.3970   -1.5010 H         1 <0>         0.0844
     37 H16         6.3263    0.8750   -1.8671 H         1 <0>         0.1349
     38 H17         8.7250    1.3827   -2.0661 H         1 <0>         0.1409
     39 H18        10.0326    0.4885   -3.9404 H         1 <0>         0.1406
     40 H19         7.0343   -2.2435   -8.1710 H         1 <0>         0.1541
     41 H20         6.9396   -0.4995   -7.8145 H         1 <0>         0.1283
     42 H21        10.0919   -1.0894   -5.7422 H         1 <0>         0.4192
     43 H22         2.1814    1.0716   -3.6522 H         1 <0>         0.3897
     44 H23         0.2017   -0.1436   -2.0240 H         1 <0>         0.4325
@<TRIPOS>BOND
     1    1    2 1
     2    1   22 1
     3    1   23 1
     4    1   24 1
     5    2    3 1
     6    2    4 1
     7    2    5 1
     8    3   25 1
     9    3   26 1
    10    3   27 1
    11    4   28 1
    12    4   29 1
    13    4   30 1
    14    5    6 1
    15    5   31 1
    16    5   44 1
    17    6    7 1
    18    6   32 1
    19    6   33 1
    20    7    8 1
    21    7   21 1
    22    7   34 1
    23    8    9 1
    24    8   35 1
    25    8   36 1
    26    9   10 1
    27   10   15 ar
    28   10   11 ar
    29   11   12 ar
    30   11   37 1
    31   12   13 ar
    32   12   38 1
    33   13   14 ar
    34   13   39 1
    35   14   20 1
    36   14   15 ar
    37   15   16 1
    38   16   17 1
    39   17   18 1
    40   17   40 1
    41   17   41 1
    42   18   19 2
    43   18   20 am
    44   20   42 1
    45   21   43 1
@<TRIPOS>MOLECULE
CHEMBL140908
   44    45     0     0     0
SMALL
USER_CHARGES

@<TRIPOS>ATOM
      1 C1         -0.0187    1.5258    0.0104 C.3       1 <0>        -0.1796
      2 C2          0.0021   -0.0041    0.0020 C.3       1 <0>         0.0549
      3 C3          0.7421   -0.5109    1.2415 C.3       1 <0>        -0.1792
      4 C4         -1.4333   -0.5336    0.0129 C.3       1 <0>        -0.1779
      5 N1          0.6897   -0.4778   -1.2066 N.4       1 <0>        -0.4977
      6 C5          2.0678    0.0307   -1.2170 C.3       1 <0>        -0.0513
      7 C6          2.7840   -0.4628   -2.4758 C.3       1 <0>         0.0876
      8 C7          4.2193    0.0668   -2.4867 C.3       1 <0>         0.0282
      9 O1          4.8516   -0.2959   -3.7158 O.3       1 <0>        -0.2870
     10 C8          6.1412    0.1010   -3.8875 C.ar      1 <0>         0.1800
     11 C9          6.7865    0.8195   -2.8918 C.ar      1 <0>        -0.2185
     12 C10         8.0977    1.2201   -3.0718 C.ar      1 <0>        -0.0394
     13 C11         8.7720    0.9087   -4.2358 C.ar      1 <0>        -0.1677
     14 C12         8.1387    0.1877   -5.2437 C.ar      1 <0>         0.2036
     15 C13         6.8177   -0.2165   -5.0576 C.ar      1 <0>        -0.1689
     16 S1          6.0094   -1.1283   -6.3344 S.3       1 <0>        -0.0538
     17 C14         6.8314   -0.5165   -7.8367 C.3       1 <0>        -0.1366
     18 C15         8.3123   -0.4436   -7.5822 C.2       1 <0>         0.5231
     19 O2          9.0646   -0.6830   -8.5031 O.2       1 <0>        -0.5016
     20 N2          8.8381   -0.1209   -6.4076 N.am      1 <0>        -0.6551
     21 O3          2.8033   -1.8916   -2.4837 O.3       1 <0>        -0.5413
     22 H1          1.0039    1.9031    0.0027 H         1 <0>         0.0812
     23 H2         -0.5459    1.8868   -0.8726 H         1 <0>         0.0839
     24 H3         -0.5289    1.8773    0.9072 H         1 <0>         0.1073
     25 H4          0.2319   -0.1594    2.1383 H         1 <0>         0.1073
     26 H5          0.7568   -1.6008    1.2356 H         1 <0>         0.0836
     27 H6          1.7647   -0.1336    1.2338 H         1 <0>         0.0806
     28 H7         -1.9605   -0.1726   -0.8702 H         1 <0>         0.0835
     29 H8         -1.4185   -1.6235    0.0069 H         1 <0>         0.0835
     30 H9         -1.9435   -0.1821    0.9097 H         1 <0>         0.1077
     31 H10         0.7033   -1.4867   -1.2121 H         1 <0>         0.4320
     32 H11         2.0530    1.1205   -1.2110 H         1 <0>         0.1483
     33 H12         2.5950   -0.3304   -0.3340 H         1 <0>         0.1415
     34 H13         2.2568   -0.1017   -3.3589 H         1 <0>         0.1366
     35 H14         4.2068    1.1525   -2.3912 H         1 <0>         0.0849
     36 H15         4.7722   -0.3649   -1.6524 H         1 <0>         0.0798
     37 H16         6.2659    1.0658   -1.9781 H         1 <0>         0.1349
     38 H17         8.5980    1.7811   -2.2962 H         1 <0>         0.1409
     39 H18         9.7960    1.2267   -4.3650 H         1 <0>         0.1406
     40 H19         6.6359   -1.1989   -8.6639 H         1 <0>         0.1541
     41 H20         6.4534    0.4760   -8.0817 H         1 <0>         0.1279
     42 H21         9.8065   -0.1112   -6.3524 H         1 <0>         0.4193
     43 H22         3.2576   -2.2830   -1.7250 H         1 <0>         0.3894
     44 H23         0.2017   -0.1436   -2.0240 H         1 <0>         0.4293
@<TRIPOS>BOND
     1    1    2 1
     2    1   22 1
     3    1   23 1
     4    1   24 1
     5    2    3 1
     6    2    4 1
     7    2    5 1
     8    3   25 1
     9    3   26 1
    10    3   27 1
    11    4   28 1
    12    4   29 1
    13    4   30 1
    14    5    6 1
    15    5   31 1
    16    5   44 1
    17    6    7 1
    18    6   32 1
    19    6   33 1
    20    7    8 1
    21    7   21 1
    22    7   34 1
    23    8    9 1
    24    8   35 1
    25    8   36 1
    26    9   10 1
    27   10   15 ar
    28   10   11 ar
    29   11   12 ar
    30   11   37 1
    31   12   13 ar
    32   12   38 1
    33   13   14 ar
    34   13   39 1
    35   14   20 1
    36   14   15 ar
    37   15   16 1
    38   16   17 1
    39   17   18 1
    40   17   40 1
    41   17   41 1
    42   18   19 2
    43   18   20 am
    44   20   42 1
    45   21   43 1
@<TRIPOS>MOLECULE
CHEMBL38205
   54    56     0     0     0
SMALL
USER_CHARGES

@<TRIPOS>ATOM
      1 C1         -0.0173    1.4248    0.0099 C.3       1 <0>         0.0226
      2 O1          0.0021   -0.0041    0.0020 O.3       1 <0>        -0.3013
      3 C2          0.6062   -0.6075   -1.0564 C.ar      1 <0>         0.1186
      4 C3          1.1729    0.1590   -2.0621 C.ar      1 <0>        -0.1722
      5 C4          1.7870   -0.4560   -3.1371 C.ar      1 <0>        -0.1022
      6 C5          1.8372   -1.8356   -3.2121 C.ar      1 <0>        -0.1105
      7 C6          1.2734   -2.6062   -2.2124 C.ar      1 <0>        -0.1656
      8 C7          0.6617   -1.9961   -1.1290 C.ar      1 <0>         0.1057
      9 O2          0.1119   -2.7526   -0.1417 O.3       1 <0>        -0.3008
     10 C8          0.2064   -4.1715   -0.2827 C.3       1 <0>         0.0251
     11 C9          2.5075   -2.5009   -4.3865 C.3       1 <0>        -0.0954
     12 C10         3.9888   -2.7191   -4.0718 C.3       1 <0>        -0.0073
     13 N1          4.6422   -3.3676   -5.2166 N.4       1 <0>        -0.5043
     14 C11         6.0644   -3.5771   -4.9145 C.3       1 <0>        -0.0417
     15 C12         6.7450   -4.2525   -6.1068 C.3       1 <0>         0.0860
     16 C13         8.1946   -4.5836   -5.7463 C.3       1 <0>         0.0292
     17 O3          8.7955   -5.3174   -6.8152 O.3       1 <0>        -0.2971
     18 C14        10.0916   -5.6922   -6.6539 C.ar      1 <0>         0.1684
     19 C15        10.7699   -5.3687   -5.4945 C.ar      1 <0>        -0.2421
     20 C16        12.0933   -5.7509   -5.3275 C.ar      1 <0>        -0.0619
     21 C17        12.7515   -6.4563   -6.3109 C.ar      1 <0>        -0.1564
     22 C18        12.0893   -6.7938   -7.4876 C.ar      1 <0>         0.1319
     23 C19        10.7469   -6.4138   -7.6590 C.ar      1 <0>        -0.1320
     24 C20        10.3470   -6.9177   -8.9751 C.2       1 <0>        -0.1886
     25 C21        11.4130   -7.5459   -9.4950 C.2       1 <0>         0.0493
     26 N2         12.4667   -7.4747   -8.6234 N.pl3     1 <0>        -0.5917
     27 H1         13.3450   -7.8562   -8.7784 H         1 <0>         0.4218
     28 O4          6.7232   -3.3699   -7.2304 O.3       1 <0>        -0.5428
     29 H2          1.0053    1.8021    0.0021 H         1 <0>         0.0585
     30 H3         -0.5445    1.7859   -0.8732 H         1 <0>         0.0594
     31 H4         -0.5275    1.7763    0.9067 H         1 <0>         0.1081
     32 H5          1.1344    1.2368   -2.0063 H         1 <0>         0.1423
     33 H6          2.2283    0.1425   -3.9203 H         1 <0>         0.1296
     34 H7          1.3136   -3.6837   -2.2735 H         1 <0>         0.1371
     35 H8         -0.2705   -4.6540    0.5704 H         1 <0>         0.1072
     36 H9         -0.2940   -4.4795   -1.2008 H         1 <0>         0.0567
     37 H10         1.2558   -4.4633   -0.3254 H         1 <0>         0.0540
     38 H11         2.0316   -3.4623   -4.5797 H         1 <0>         0.0955
     39 H12         2.4129   -1.8652   -5.2669 H         1 <0>         0.0980
     40 H13         4.4646   -1.7577   -3.8786 H         1 <0>         0.1348
     41 H14         4.0834   -3.3548   -3.1915 H         1 <0>         0.1337
     42 H15         4.2017   -4.2575   -5.3955 H         1 <0>         0.4304
     43 H16         6.5403   -2.6157   -4.7213 H         1 <0>         0.1405
     44 H17         6.1591   -4.2128   -4.0341 H         1 <0>         0.1464
     45 H18         6.2137   -5.1710   -6.3560 H         1 <0>         0.1346
     46 H19         8.7487   -3.6591   -5.5837 H         1 <0>         0.0771
     47 H20         8.2148   -5.1841   -4.8369 H         1 <0>         0.0814
     48 H21        10.2679   -4.8155   -4.7146 H         1 <0>         0.1239
     49 H22        12.6131   -5.4923   -4.4168 H         1 <0>         0.1313
     50 H23        13.7818   -6.7472   -6.1688 H         1 <0>         0.1260
     51 H24         9.3780   -6.8056   -9.4387 H         1 <0>         0.1485
     52 H25        11.4387   -8.0277  -10.4612 H         1 <0>         0.1756
     53 H26         7.1787   -2.5303   -7.0799 H         1 <0>         0.3903
     54 H27         4.5546   -2.7791   -6.0315 H         1 <0>         0.4340
@<TRIPOS>BOND
     1    1    2 1
     2    1   29 1
     3    1   30 1
     4    1   31 1
     5    2    3 1
     6    3    8 ar
     7    3    4 ar
     8    4    5 ar
     9    4   32 1
    10    5    6 ar
    11    5   33 1
    12    6    7 ar
    13    6   11 1
    14    7    8 ar
    15    7   34 1
    16    8    9 1
    17    9   10 1
    18   10   35 1
    19   10   36 1
    20   10   37 1
    21   11   12 1
    22   11   38 1
    23   11   39 1
    24   12   13 1
    25   12   40 1
    26   12   41 1
    27   13   14 1
    28   13   42 1
    29   13   54 1
    30   14   15 1
    31   14   43 1
    32   14   44 1
    33   15   16 1
    34   15   28 1
    35   15   45 1
    36   16   17 1
    37   16   46 1
    38   16   47 1
    39   17   18 1
    40   18   23 ar
    41   18   19 ar
    42   19   20 ar
    43   19   48 1
    44   20   21 ar
    45   20   49 1
    46   21   22 ar
    47   21   50 1
    48   22   26 1
    49   22   23 ar
    50   23   24 1
    51   24   25 2
    52   24   51 1
    53   25   26 1
    54   25   52 1
    55   26   27 1
    56   28   53 1
@<TRIPOS>MOLECULE
CHEMBL38205
   54    56     0     0     0
SMALL
USER_CHARGES

@<TRIPOS>ATOM
      1 C1         -0.0173    1.4248    0.0099 C.3       1 <0>         0.0226
      2 O1          0.0021   -0.0041    0.0020 O.3       1 <0>        -0.3013
      3 C2          0.6062   -0.6075   -1.0564 C.ar      1 <0>         0.1186
      4 C3          1.1729    0.1590   -2.0621 C.ar      1 <0>        -0.1722
      5 C4          1.7870   -0.4560   -3.1371 C.ar      1 <0>        -0.1022
      6 C5          1.8372   -1.8356   -3.2121 C.ar      1 <0>        -0.1105
      7 C6          1.2734   -2.6062   -2.2124 C.ar      1 <0>        -0.1656
      8 C7          0.6617   -1.9961   -1.1290 C.ar      1 <0>         0.1057
      9 O2          0.1119   -2.7526   -0.1417 O.3       1 <0>        -0.3008
     10 C8          0.2064   -4.1715   -0.2827 C.3       1 <0>         0.0251
     11 C9          2.5075   -2.5009   -4.3865 C.3       1 <0>        -0.0953
     12 C10         3.9888   -2.7191   -4.0718 C.3       1 <0>        -0.0073
     13 N1          4.6422   -3.3676   -5.2166 N.4       1 <0>        -0.5038
     14 C11         6.0644   -3.5771   -4.9145 C.3       1 <0>        -0.0419
     15 C12         6.7450   -4.2525   -6.1068 C.3       1 <0>         0.0858
     16 C13         8.2263   -4.4707   -5.7922 C.3       1 <0>         0.0292
     17 O3          8.8864   -4.9940   -6.9465 O.3       1 <0>        -0.2970
     18 C14        10.2168   -5.2463   -6.8349 C.ar      1 <0>         0.1684
     19 C15        10.8734   -5.0031   -5.6438 C.ar      1 <0>        -0.2421
     20 C16        12.2318   -5.2605   -5.5276 C.ar      1 <0>        -0.0618
     21 C17        12.9470   -5.7606   -6.5935 C.ar      1 <0>        -0.1565
     22 C18        12.3079   -6.0137   -7.8037 C.ar      1 <0>         0.1319
     23 C19        10.9306   -5.7600   -7.9245 C.ar      1 <0>        -0.1320
     24 C20        10.5678   -6.1315   -9.2943 C.2       1 <0>        -0.1885
     25 C21        11.6868   -6.5712   -9.8908 C.2       1 <0>         0.0493
     26 N2         12.7392   -6.5001   -9.0175 N.pl3     1 <0>        -0.5917
     27 H1         13.6505   -6.7631   -9.2205 H         1 <0>         0.4218
     28 O4          6.1211   -5.5129   -6.3601 O.3       1 <0>        -0.5434
     29 H2          1.0053    1.8021    0.0021 H         1 <0>         0.0585
     30 H3         -0.5445    1.7859   -0.8732 H         1 <0>         0.0594
     31 H4         -0.5275    1.7763    0.9067 H         1 <0>         0.1081
     32 H5          1.1344    1.2368   -2.0063 H         1 <0>         0.1423
     33 H6          2.2283    0.1425   -3.9203 H         1 <0>         0.1297
     34 H7          1.3136   -3.6837   -2.2735 H         1 <0>         0.1370
     35 H8         -0.2705   -4.6540    0.5704 H         1 <0>         0.1072
     36 H9         -0.2940   -4.4795   -1.2008 H         1 <0>         0.0568
     37 H10         1.2558   -4.4633   -0.3254 H         1 <0>         0.0539
     38 H11         2.0316   -3.4623   -4.5797 H         1 <0>         0.0956
     39 H12         2.4129   -1.8652   -5.2669 H         1 <0>         0.0980
     40 H13         4.4646   -1.7577   -3.8786 H         1 <0>         0.1353
     41 H14         4.0834   -3.3548   -3.1915 H         1 <0>         0.1331
     42 H15         4.2017   -4.2575   -5.3955 H         1 <0>         0.4331
     43 H16         6.5403   -2.6157   -4.7213 H         1 <0>         0.1473
     44 H17         6.1591   -4.2128   -4.0341 H         1 <0>         0.1397
     45 H18         6.6503   -3.6168   -6.9872 H         1 <0>         0.1357
     46 H19         8.6820   -3.5209   -5.5123 H         1 <0>         0.0818
     47 H20         8.3223   -5.1768   -4.9673 H         1 <0>         0.0767
     48 H21        10.3266   -4.6105   -4.7992 H         1 <0>         0.1239
     49 H22        12.7340   -5.0664   -4.5914 H         1 <0>         0.1312
     50 H23        14.0041   -5.9559   -6.4901 H         1 <0>         0.1260
     51 H24         9.5861   -6.0648   -9.7394 H         1 <0>         0.1485
     52 H25        11.7497   -6.9203  -10.9109 H         1 <0>         0.1756
     53 H26         6.1671   -6.1308   -5.6177 H         1 <0>         0.3897
     54 H27         4.5546   -2.7791   -6.0315 H         1 <0>         0.4311
@<TRIPOS>BOND
     1    1    2 1
     2    1   29 1
     3    1   30 1
     4    1   31 1
     5    2    3 1
     6    3    8 ar
     7    3    4 ar
     8    4    5 ar
     9    4   32 1
    10    5    6 ar
    11    5   33 1
    12    6    7 ar
    13    6   11 1
    14    7    8 ar
    15    7   34 1
    16    8    9 1
    17    9   10 1
    18   10   35 1
    19   10   36 1
    20   10   37 1
    21   11   12 1
    22   11   38 1
    23   11   39 1
    24   12   13 1
    25   12   40 1
    26   12   41 1
    27   13   14 1
    28   13   42 1
    29   13   54 1
    30   14   15 1
    31   14   43 1
    32   14   44 1
    33   15   16 1
    34   15   28 1
    35   15   45 1
    36   16   17 1
    37   16   46 1
    38   16   47 1
    39   17   18 1
    40   18   23 ar
    41   18   19 ar
    42   19   20 ar
    43   19   48 1
    44   20   21 ar
    45   20   49 1
    46   21   22 ar
    47   21   50 1
    48   22   26 1
    49   22   23 ar
    50   23   24 1
    51   24   25 2
    52   24   51 1
    53   25   26 1
    54   25   52 1
    55   26   27 1
    56   28   53 1
@<TRIPOS>MOLECULE
CHEMBL95784
   59    61     0     0     0
SMALL
USER_CHARGES

@<TRIPOS>ATOM
      1 C1         -0.0225    1.8097    0.0120 C.3       1 <0>        -0.6368
      2 S1          0.0021   -0.0041    0.0020 S.o2      1 <0>         2.5318
      3 O1          0.8352   -0.4880    1.0465 O.2       1 <0>        -1.0220
      4 O2         -1.3147   -0.5105   -0.1678 O.2       1 <0>        -1.0220
      5 N1          0.7947   -0.4113   -1.3938 N.2       1 <0>        -1.0846
      6 C2          0.9911   -1.7494   -1.7167 C.ar      1 <0>         0.3224
      7 C3          0.5158   -2.7457   -0.8684 C.ar      1 <0>        -0.2699
      8 C4          0.7086   -4.0708   -1.1853 C.ar      1 <0>         0.0069
      9 C5          1.3825   -4.4162   -2.3604 C.ar      1 <0>        -0.2783
     10 C6          1.8586   -3.4134   -3.2101 C.ar      1 <0>        -0.0404
     11 C7          1.6576   -2.0901   -2.8906 C.ar      1 <0>        -0.1938
     12 C8          1.5913   -5.8358   -2.7027 C.2       1 <0>         0.5829
     13 O3          1.1770   -6.7070   -1.9625 O.2       1 <0>        -0.5533
     14 N2          2.2412   -6.1672   -3.8360 N.am      1 <0>        -0.7436
     15 C9          2.4485   -7.5770   -4.1760 C.3       1 <0>         0.0989
     16 C10         3.2061   -7.6758   -5.5016 C.3       1 <0>        -0.0214
     17 N3          3.4140   -9.0895   -5.8426 N.4       1 <0>        -0.4993
     18 C11         4.1413   -9.1844   -7.1154 C.3       1 <0>        -0.0402
     19 C12         4.3578  -10.6568   -7.4705 C.3       1 <0>         0.0858
     20 C13         5.2219  -10.7561   -8.7292 C.3       1 <0>         0.0289
     21 O4          5.5212  -12.1280   -8.9945 O.3       1 <0>        -0.2974
     22 C14         6.2855  -12.3925  -10.0854 C.ar      1 <0>         0.1381
     23 C15         6.7386  -11.3710  -10.8722 C.ar      1 <0>        -0.2174
     24 C16         7.5230  -11.6255  -11.9935 C.ar      1 <0>        -0.0820
     25 C17         7.8622  -12.8982  -12.3394 C.ar      1 <0>        -0.1331
     26 C18         7.4165  -13.9764  -11.5562 C.ar      1 <0>        -0.0205
     27 C19         6.6219  -13.7221  -10.4108 C.ar      1 <0>        -0.0673
     28 C20         6.1804  -14.7992   -9.6256 C.ar      1 <0>        -0.0896
     29 C21         6.5246  -16.0703   -9.9707 C.ar      1 <0>        -0.1217
     30 C22         7.3104  -16.3207  -11.0941 C.ar      1 <0>        -0.1001
     31 C23         7.7475  -15.3024  -11.8844 C.ar      1 <0>        -0.1139
     32 O5          3.0943  -11.2799   -7.7097 O.3       1 <0>        -0.5424
     33 H1          1.0001    2.1870    0.0043 H         1 <0>         0.1178
     34 H2         -0.5497    2.1708   -0.8711 H         1 <0>         0.1178
     35 H3         -0.5327    2.1613    0.9088 H         1 <0>         0.1068
     36 H4         -0.0045   -2.4783    0.0394 H         1 <0>         0.1108
     37 H5          0.3399   -4.8433   -0.5266 H         1 <0>         0.1155
     38 H6          2.3799   -3.6770   -4.1185 H         1 <0>         0.1014
     39 H7          2.0210   -1.3149   -3.5490 H         1 <0>         0.1189
     40 H8          2.5717   -5.4722   -4.4265 H         1 <0>         0.4045
     41 H9          3.0288   -8.0590   -3.3892 H         1 <0>         0.0848
     42 H10         1.4829   -8.0735   -4.2714 H         1 <0>         0.0849
     43 H11         2.6258   -7.1939   -6.2885 H         1 <0>         0.1398
     44 H12         4.1717   -7.1793   -5.4062 H         1 <0>         0.1403
     45 H13         3.9511   -9.5357   -5.1142 H         1 <0>         0.4332
     46 H14         3.5611   -8.7024   -7.9022 H         1 <0>         0.1419
     47 H15         5.1069   -8.6879   -7.0199 H         1 <0>         0.1480
     48 H16         4.8603  -11.1597   -6.6442 H         1 <0>         0.1358
     49 H17         4.6814  -10.3319   -9.5753 H         1 <0>         0.0789
     50 H18         6.1498  -10.2046   -8.5774 H         1 <0>         0.0835
     51 H19         6.4843  -10.3520  -10.6205 H         1 <0>         0.1247
     52 H20         7.8678  -10.8004  -12.5992 H         1 <0>         0.1280
     53 H21         8.4712  -13.0782  -13.2129 H         1 <0>         0.1319
     54 H22         5.5710  -14.6202   -8.7520 H         1 <0>         0.1308
     55 H23         6.1839  -16.8969   -9.3648 H         1 <0>         0.1271
     56 H24         7.5698  -17.3384  -11.3458 H         1 <0>         0.1281
     57 H25         8.3555  -15.5112  -12.7522 H         1 <0>         0.1331
     58 H26         2.5907  -10.8829   -8.4336 H         1 <0>         0.3908
     59 H27         2.5201   -9.5492   -5.9309 H         1 <0>         0.4364
@<TRIPOS>BOND
     1    1    2 1
     2    1   33 1
     3    1   34 1
     4    1   35 1
     5    2    3 2
     6    2    4 2
     7    2    5 1
     8    5    6 1
     9    6   11 ar
    10    6    7 ar
    11    7    8 ar
    12    7   36 1
    13    8    9 ar
    14    8   37 1
    15    9   10 ar
    16    9   12 1
    17   10   11 ar
    18   10   38 1
    19   11   39 1
    20   12   13 2
    21   12   14 am
    22   14   15 1
    23   14   40 1
    24   15   16 1
    25   15   41 1
    26   15   42 1
    27   16   17 1
    28   16   43 1
    29   16   44 1
    30   17   18 1
    31   17   45 1
    32   17   59 1
    33   18   19 1
    34   18   46 1
    35   18   47 1
    36   19   20 1
    37   19   32 1
    38   19   48 1
    39   20   21 1
    40   20   49 1
    41   20   50 1
    42   21   22 1
    43   22   27 ar
    44   22   23 ar
    45   23   24 ar
    46   23   51 1
    47   24   25 ar
    48   24   52 1
    49   25   26 ar
    50   25   53 1
    51   26   31 ar
    52   26   27 ar
    53   27   28 ar
    54   28   29 ar
    55   28   54 1
    56   29   30 ar
    57   29   55 1
    58   30   31 ar
    59   30   56 1
    60   31   57 1
    61   32   58 1
@<TRIPOS>MOLECULE
CHEMBL95784
   59    61     0     0     0
SMALL
USER_CHARGES

@<TRIPOS>ATOM
      1 C1         -0.0225    1.8097    0.0120 C.3       1 <0>        -0.6368
      2 S1          0.0021   -0.0041    0.0020 S.o2      1 <0>         2.5317
      3 O1          0.8352   -0.4880    1.0465 O.2       1 <0>        -1.0220
      4 O2         -1.3147   -0.5105   -0.1678 O.2       1 <0>        -1.0220
      5 N1          0.7947   -0.4113   -1.3938 N.2       1 <0>        -1.0846
      6 C2          0.9911   -1.7494   -1.7167 C.ar      1 <0>         0.3224
      7 C3          0.5158   -2.7457   -0.8684 C.ar      1 <0>        -0.2699
      8 C4          0.7086   -4.0708   -1.1853 C.ar      1 <0>         0.0069
      9 C5          1.3825   -4.4162   -2.3604 C.ar      1 <0>        -0.2783
     10 C6          1.8586   -3.4134   -3.2101 C.ar      1 <0>        -0.0404
     11 C7          1.6576   -2.0901   -2.8906 C.ar      1 <0>        -0.1938
     12 C8          1.5913   -5.8358   -2.7027 C.2       1 <0>         0.5829
     13 O3          1.1770   -6.7070   -1.9625 O.2       1 <0>        -0.5532
     14 N2          2.2412   -6.1672   -3.8360 N.am      1 <0>        -0.7436
     15 C9          2.4485   -7.5770   -4.1760 C.3       1 <0>         0.0990
     16 C10         3.2061   -7.6758   -5.5016 C.3       1 <0>        -0.0213
     17 N3          3.4140   -9.0895   -5.8426 N.4       1 <0>        -0.4987
     18 C11         4.1413   -9.1844   -7.1154 C.3       1 <0>        -0.0404
     19 C12         4.3578  -10.6568   -7.4705 C.3       1 <0>         0.0856
     20 C13         5.1153  -10.7557   -8.7961 C.3       1 <0>         0.0289
     21 O4          5.2157  -12.1267   -9.1863 O.3       1 <0>        -0.2973
     22 C14         5.8644  -12.3907  -10.3498 C.ar      1 <0>         0.1381
     23 C15         6.3923  -11.3703  -11.0901 C.ar      1 <0>        -0.2174
     24 C16         7.0600  -11.6244  -12.2847 C.ar      1 <0>        -0.0820
     25 C17         7.2074  -12.8954  -12.7505 C.ar      1 <0>        -0.1331
     26 C18         6.6794  -13.9724  -12.0186 C.ar      1 <0>        -0.0205
     27 C19         6.0030  -13.7194  -10.7994 C.ar      1 <0>        -0.0673
     28 C20         5.4793  -14.7960  -10.0656 C.ar      1 <0>        -0.0895
     29 C21         5.6319  -16.0662  -10.5310 C.ar      1 <0>        -0.1217
     30 C22         6.3015  -16.3162  -11.7274 C.ar      1 <0>        -0.1001
     31 C23         6.8129  -15.2967  -12.4702 C.ar      1 <0>        -0.1139
     32 O5          5.1185  -11.2887   -6.4389 O.3       1 <0>        -0.5431
     33 H1          1.0001    2.1870    0.0043 H         1 <0>         0.1178
     34 H2         -0.5497    2.1708   -0.8711 H         1 <0>         0.1178
     35 H3         -0.5327    2.1613    0.9088 H         1 <0>         0.1068
     36 H4         -0.0045   -2.4783    0.0394 H         1 <0>         0.1108
     37 H5          0.3399   -4.8433   -0.5266 H         1 <0>         0.1155
     38 H6          2.3799   -3.6770   -4.1185 H         1 <0>         0.1014
     39 H7          2.0210   -1.3149   -3.5490 H         1 <0>         0.1189
     40 H8          2.5717   -5.4722   -4.4265 H         1 <0>         0.4045
     41 H9          3.0288   -8.0590   -3.3892 H         1 <0>         0.0849
     42 H10         1.4829   -8.0735   -4.2714 H         1 <0>         0.0849
     43 H11         2.6258   -7.1939   -6.2885 H         1 <0>         0.1403
     44 H12         4.1717   -7.1793   -5.4062 H         1 <0>         0.1397
     45 H13         3.9511   -9.5357   -5.1142 H         1 <0>         0.4359
     46 H14         3.5611   -8.7024   -7.9022 H         1 <0>         0.1485
     47 H15         5.1069   -8.6879   -7.0199 H         1 <0>         0.1413
     48 H16         3.3922  -11.1534   -7.5659 H         1 <0>         0.1367
     49 H17         4.5788  -10.1978   -9.5636 H         1 <0>         0.0838
     50 H18         6.1149  -10.3381   -8.6754 H         1 <0>         0.0786
     51 H19         6.2897  -10.3526  -10.7435 H         1 <0>         0.1247
     52 H20         7.4675  -10.8002  -12.8513 H         1 <0>         0.1279
     53 H21         7.7280  -13.0751  -13.6796 H         1 <0>         0.1320
     54 H22         4.9583  -14.6173   -9.1366 H         1 <0>         0.1308
     55 H23         5.2284  -16.8925   -9.9646 H         1 <0>         0.1271
     56 H24         6.4093  -17.3332  -12.0743 H         1 <0>         0.1281
     57 H25         7.3291  -15.5052  -13.3957 H         1 <0>         0.1331
     58 H26         5.9917  -10.8977   -6.2984 H         1 <0>         0.3905
     59 H27         2.5201   -9.5492   -5.9309 H         1 <0>         0.4335
@<TRIPOS>BOND
     1    1    2 1
     2    1   33 1
     3    1   34 1
     4    1   35 1
     5    2    3 2
     6    2    4 2
     7    2    5 1
     8    5    6 1
     9    6   11 ar
    10    6    7 ar
    11    7    8 ar
    12    7   36 1
    13    8    9 ar
    14    8   37 1
    15    9   10 ar
    16    9   12 1
    17   10   11 ar
    18   10   38 1
    19   11   39 1
    20   12   13 2
    21   12   14 am
    22   14   15 1
    23   14   40 1
    24   15   16 1
    25   15   41 1
    26   15   42 1
    27   16   17 1
    28   16   43 1
    29   16   44 1
    30   17   18 1
    31   17   45 1
    32   17   59 1
    33   18   19 1
    34   18   46 1
    35   18   47 1
    36   19   20 1
    37   19   32 1
    38   19   48 1
    39   20   21 1
    40   20   49 1
    41   20   50 1
    42   21   22 1
    43   22   27 ar
    44   22   23 ar
    45   23   24 ar
    46   23   51 1
    47   24   25 ar
    48   24   52 1
    49   25   26 ar
    50   25   53 1
    51   26   31 ar
    52   26   27 ar
    53   27   28 ar
    54   28   29 ar
    55   28   54 1
    56   29   30 ar
    57   29   55 1
    58   30   31 ar
    59   30   56 1
    60   31   57 1
    61   32   58 1
@<TRIPOS>MOLECULE
CHEMBL53679
   59    61     0     0     0
SMALL
USER_CHARGES

@<TRIPOS>ATOM
      1 C1          1.8739   -1.0352    2.2290 C.3       1 <0>        -0.1544
      2 C2          1.5636   -2.4903    1.8725 C.3       1 <0>        -0.1259
      3 C3          0.0500   -2.6722    1.7433 C.3       1 <0>        -0.1214
      4 C4         -0.2602   -4.1274    1.3868 C.3       1 <0>        -0.1207
      5 C5         -1.7739   -4.3093    1.2576 C.3       1 <0>        -0.1197
      6 C6         -2.0841   -5.7645    0.9011 C.3       1 <0>        -0.1199
      7 C7         -3.5977   -5.9464    0.7719 C.3       1 <0>        -0.1098
      8 C8         -3.9079   -7.4016    0.4153 C.3       1 <0>        -0.0458
      9 C9         -5.3988   -7.5807    0.2881 C.2       1 <0>         0.1031
     10 C10        -5.9562   -8.0961   -0.8342 C.2       1 <0>        -0.2638
     11 S1         -7.6862   -8.0589   -0.3945 S.3       1 <0>         0.1149
     12 C11        -7.5211   -7.4021    1.1462 C.2       1 <0>         0.2893
     13 N1         -6.2197   -7.2474    1.2679 N.2       1 <0>        -0.5605
     14 N2         -8.5146   -7.1016    2.0660 N.pl3     1 <0>        -0.6195
     15 C12        -9.8401   -7.4584    1.8044 C.ar      1 <0>         0.2253
     16 C13       -10.1229   -8.6382    1.1276 C.ar      1 <0>        -0.1810
     17 C14       -11.4340   -8.9878    0.8708 C.ar      1 <0>         0.0247
     18 C15       -12.4648   -8.1648    1.2860 C.ar      1 <0>        -0.6986
     19 C16       -12.1869   -6.9897    1.9600 C.ar      1 <0>         0.0178
     20 C17       -10.8783   -6.6370    2.2256 C.ar      1 <0>        -0.1664
     21 S2        -14.1361   -8.6142    0.9552 S.o2      1 <0>         2.6928
     22 O1        -14.8679   -7.4014    0.8417 O.2       1 <0>        -0.9485
     23 O2        -14.0983   -9.5813   -0.0853 O.2       1 <0>        -0.9458
     24 N3        -14.7104   -9.3893    2.3012 N.pl3     1 <0>        -1.0561
     25 C18       -14.1106  -10.5742    2.7339 C.ar      1 <0>         0.1421
     26 C19       -13.7832  -11.5642    1.8162 C.ar      1 <0>        -0.1567
     27 C20       -13.1898  -12.7344    2.2474 C.ar      1 <0>        -0.0953
     28 C21       -12.9221  -12.9213    3.5911 C.ar      1 <0>        -0.1271
     29 C22       -13.2468  -11.9378    4.5074 C.ar      1 <0>        -0.1016
     30 C23       -13.8350  -10.7628    4.0823 C.ar      1 <0>        -0.1299
     31 H1          2.9522   -0.9056    2.3210 H         1 <0>         0.0535
     32 H2          1.4948   -0.3801    1.4445 H         1 <0>         0.0533
     33 H3          1.3955   -0.7831    3.1754 H         1 <0>         0.0532
     34 H4          2.0420   -2.7424    0.9260 H         1 <0>         0.0603
     35 H5          1.9427   -3.1454    2.6569 H         1 <0>         0.0603
     36 H6         -0.4283   -2.4201    2.6897 H         1 <0>         0.0603
     37 H7         -0.3290   -2.0172    0.9588 H         1 <0>         0.0604
     38 H8          0.2181   -4.3795    0.4403 H         1 <0>         0.0609
     39 H9          0.1188   -4.7824    2.1712 H         1 <0>         0.0608
     40 H10        -2.2522   -4.0572    2.2040 H         1 <0>         0.0605
     41 H11        -2.1529   -3.6543    0.4731 H         1 <0>         0.0602
     42 H12        -1.6058   -6.0166   -0.0454 H         1 <0>         0.0617
     43 H13        -1.7051   -6.4195    1.6855 H         1 <0>         0.0622
     44 H14        -4.0760   -5.6943    1.7183 H         1 <0>         0.0699
     45 H15        -3.9768   -5.2914   -0.0126 H         1 <0>         0.0589
     46 H16        -3.4296   -7.6537   -0.5311 H         1 <0>         0.0813
     47 H17        -3.5289   -8.0566    1.1998 H         1 <0>         0.0798
     48 H18        -5.4841   -8.4356   -1.7442 H         1 <0>         0.1962
     49 H19        -8.2893   -6.6436    2.8909 H         1 <0>         0.4273
     50 H20        -9.3183   -9.2811    0.8024 H         1 <0>         0.1413
     51 H21       -11.6545   -9.9049    0.3446 H         1 <0>         0.1497
     52 H22       -12.9943   -6.3490    2.2826 H         1 <0>         0.1475
     53 H23       -10.6622   -5.7216    2.7563 H         1 <0>         0.1420
     54 H24       -15.4632   -9.0205    2.7890 H         1 <0>         0.4279
     55 H25       -13.9927  -11.4191    0.7667 H         1 <0>         0.1571
     56 H26       -12.9350  -13.5045    1.5344 H         1 <0>         0.1309
     57 H27       -12.4586  -13.8376    3.9258 H         1 <0>         0.1258
     58 H28       -13.0363  -12.0869    5.5561 H         1 <0>         0.1274
     59 H29       -14.0843   -9.9932    4.7978 H         1 <0>         0.1280
@<TRIPOS>BOND
     1    1    2 1
     2    1   31 1
     3    1   32 1
     4    1   33 1
     5    2    3 1
     6    2   34 1
     7    2   35 1
     8    3    4 1
     9    3   36 1
    10    3   37 1
    11    4    5 1
    12    4   38 1
    13    4   39 1
    14    5    6 1
    15    5   40 1
    16    5   41 1
    17    6    7 1
    18    6   42 1
    19    6   43 1
    20    7    8 1
    21    7   44 1
    22    7   45 1
    23    8    9 1
    24    8   46 1
    25    8   47 1
    26    9   13 1
    27    9   10 2
    28   10   11 1
    29   10   48 1
    30   11   12 1
    31   12   13 2
    32   12   14 1
    33   14   15 1
    34   14   49 1
    35   15   20 ar
    36   15   16 ar
    37   16   17 ar
    38   16   50 1
    39   17   18 ar
    40   17   51 1
    41   18   19 ar
    42   18   21 1
    43   19   20 ar
    44   19   52 1
    45   20   53 1
    46   21   22 2
    47   21   23 2
    48   21   24 1
    49   24   25 1
    50   24   54 1
    51   25   30 ar
    52   25   26 ar
    53   26   27 ar
    54   26   55 1
    55   27   28 ar
    56   27   56 1
    57   28   29 ar
    58   28   57 1
    59   29   30 ar
    60   29   58 1
    61   30   59 1
@<TRIPOS>MOLECULE
CHEMBL497963
   63    66     0     0     0
SMALL
USER_CHARGES

@<TRIPOS>ATOM
      1 C1          4.9472  -11.8167    3.0426 C.3       1 <0>        -0.1142
      2 C2          3.9421  -11.3342    2.0287 C.ar      1 <0>         0.1770
      3 C3          3.8926   -9.9781    1.7154 C.ar      1 <0>        -0.1752
      4 C4          2.9878   -9.5230    0.7980 C.ar      1 <0>        -0.0416
      5 C5          2.1269  -10.4568    0.1952 C.ar      1 <0>        -0.1230
      6 C6          2.2296  -11.8223    0.5591 C.ar      1 <0>         0.1657
      7 N1          3.1409  -12.2029    1.4609 N.ar      1 <0>        -0.4764
      8 C7          1.3709  -12.7582   -0.0413 C.ar      1 <0>        -0.1176
      9 C8          0.4540  -12.3495   -0.9613 C.ar      1 <0>        -0.0642
     10 C9          0.3466  -11.0107   -1.3248 C.ar      1 <0>        -0.2098
     11 C10         1.1692  -10.0614   -0.7595 C.ar      1 <0>         0.1441
     12 O1          1.0578   -8.7568   -1.1186 O.3       1 <0>        -0.3233
     13 C11         0.0630   -8.4348   -2.0927 C.3       1 <0>         0.0248
     14 C12         0.0868   -6.9298   -2.3676 C.3       1 <0>        -0.0003
     15 N2          1.3806   -6.5601   -2.9569 N.4       1 <0>        -0.3840
     16 C13         1.4628   -5.0994   -3.0759 C.3       1 <0>        -0.0048
     17 C14         2.8398   -4.7044   -3.6137 C.3       1 <0>        -0.1423
     18 C15         3.0464   -5.3427   -4.9904 C.3       1 <0>        -0.0928
     19 C16         2.8848   -6.8606   -4.8678 C.3       1 <0>        -0.1428
     20 C17         1.5062   -7.1757   -4.2834 C.3       1 <0>        -0.0129
     21 C18         4.4521   -5.0173   -5.4994 C.3       1 <0>        -0.0641
     22 C19         4.6115   -5.5406   -6.9036 C.ar      1 <0>        -0.0617
     23 C20         5.0779   -6.8257   -7.1131 C.ar      1 <0>        -0.2323
     24 C21         5.2260   -7.3096   -8.3997 C.ar      1 <0>        -0.0666
     25 C22         4.9080   -6.5107   -9.4807 C.ar      1 <0>        -0.2549
     26 C23         4.4389   -5.2199   -9.2739 C.ar      1 <0>         0.2878
     27 C24         4.2863   -4.7385   -7.9796 C.ar      1 <0>        -0.1824
     28 N3          4.1164   -4.4092  -10.3647 N.2       1 <0>        -1.1002
     29 S1          4.2931   -4.9870  -11.9065 S.o2      1 <0>         2.5286
     30 O2          5.6884   -5.2136  -12.0511 O.2       1 <0>        -1.0277
     31 O3          3.3709   -6.0642  -11.9980 O.2       1 <0>        -1.0311
     32 C25         3.7674   -3.6217  -12.9790 C.3       1 <0>        -0.6373
     33 H1          5.8771  -12.0768    2.5370 H         1 <0>         0.0870
     34 H2          5.1375  -11.0272    3.7696 H         1 <0>         0.0812
     35 H3          4.5540  -12.6949    3.5545 H         1 <0>         0.0832
     36 H4          4.5683   -9.2870    2.1972 H         1 <0>         0.1426
     37 H5          2.9353   -8.4748    0.5433 H         1 <0>         0.1393
     38 H6          1.4383  -13.8023    0.2267 H         1 <0>         0.1414
     39 H7         -0.2010  -13.0772   -1.4171 H         1 <0>         0.1376
     40 H8         -0.3887  -10.7129   -2.0576 H         1 <0>         0.1328
     41 H9          0.2699   -8.9760   -3.0159 H         1 <0>         0.0913
     42 H10        -0.9195   -8.7200   -1.7167 H         1 <0>         0.1099
     43 H11        -0.7145   -6.6744   -3.0609 H         1 <0>         0.1500
     44 H12        -0.0549   -6.3875   -1.4328 H         1 <0>         0.1398
     45 H13         0.6912   -4.7471   -3.7603 H         1 <0>         0.1293
     46 H14         1.3124   -4.6465   -2.0959 H         1 <0>         0.1268
     47 H15         2.8982   -3.6196   -3.7030 H         1 <0>         0.1124
     48 H16         3.6123   -5.0561   -2.9298 H         1 <0>         0.0858
     49 H17         2.3054   -4.9524   -5.6880 H         1 <0>         0.0929
     50 H18         2.9754   -7.3170   -5.8534 H         1 <0>         0.1259
     51 H19         3.6582   -7.2570   -4.2099 H         1 <0>         0.0842
     52 H20         1.3877   -8.2557   -4.1950 H         1 <0>         0.1242
     53 H21         0.7336   -6.7791   -4.9421 H         1 <0>         0.1311
     54 H22         4.5990   -3.9372   -5.4954 H         1 <0>         0.0747
     55 H23         5.1913   -5.4870   -4.8506 H         1 <0>         0.0672
     56 H24         5.3273   -7.4525   -6.2697 H         1 <0>         0.0952
     57 H25         5.5911   -8.3134   -8.5598 H         1 <0>         0.0998
     58 H26         5.0242   -6.8892  -10.4855 H         1 <0>         0.1012
     59 H27         3.9180   -3.7367   -7.8152 H         1 <0>         0.1075
     60 H28         4.4010   -2.7533  -12.7987 H         1 <0>         0.1162
     61 H29         3.8547   -3.9249  -14.0224 H         1 <0>         0.1038
     62 H30         2.7304   -3.3665  -12.7605 H         1 <0>         0.1150
     63 H31         2.1263   -6.8896   -2.3624 H         1 <0>         0.4263
@<TRIPOS>BOND
     1    1    2 1
     2    1   33 1
     3    1   34 1
     4    1   35 1
     5    2    7 ar
     6    2    3 ar
     7    3    4 ar
     8    3   36 1
     9    4    5 ar
    10    4   37 1
    11    5   11 ar
    12    5    6 ar
    13    6    7 ar
    14    6    8 ar
    15    8    9 ar
    16    8   38 1
    17    9   10 ar
    18    9   39 1
    19   10   11 ar
    20   10   40 1
    21   11   12 1
    22   12   13 1
    23   13   14 1
    24   13   41 1
    25   13   42 1
    26   14   15 1
    27   14   43 1
    28   14   44 1
    29   15   20 1
    30   15   16 1
    31   15   63 1
    32   16   17 1
    33   16   45 1
    34   16   46 1
    35   17   18 1
    36   17   47 1
    37   17   48 1
    38   18   19 1
    39   18   21 1
    40   18   49 1
    41   19   20 1
    42   19   50 1
    43   19   51 1
    44   20   52 1
    45   20   53 1
    46   21   22 1
    47   21   54 1
    48   21   55 1
    49   22   27 ar
    50   22   23 ar
    51   23   24 ar
    52   23   56 1
    53   24   25 ar
    54   24   57 1
    55   25   26 ar
    56   25   58 1
    57   26   27 ar
    58   26   28 1
    59   27   59 1
    60   28   29 1
    61   29   30 2
    62   29   31 2
    63   29   32 1
    64   32   60 1
    65   32   61 1
    66   32   62 1
@<TRIPOS>MOLECULE
CHEMBL163579
   83    86     0     0     0
SMALL
USER_CHARGES

@<TRIPOS>ATOM
      1 C1          0.0744   -6.4551    7.8926 C.3       1 <0>        -0.1554
      2 C2         -0.0918   -7.6564    6.9598 C.3       1 <0>        -0.1256
      3 C3         -1.5359   -7.7163    6.4578 C.3       1 <0>        -0.1221
      4 C4         -1.7022   -8.9176    5.5250 C.3       1 <0>        -0.1204
      5 C5         -3.1462   -8.9776    5.0231 C.3       1 <0>        -0.1204
      6 C6         -3.3125  -10.1789    4.0903 C.3       1 <0>        -0.1155
      7 C7         -4.7566  -10.2389    3.5884 C.3       1 <0>        -0.1402
      8 C8         -4.9228  -11.4402    2.6556 C.3       1 <0>         0.1272
      9 N1         -6.3056  -11.4976    2.1750 N.am      1 <0>        -0.5549
     10 C9         -7.3417  -12.1617    2.7846 C.2       1 <0>         0.2833
     11 N2         -8.4158  -11.9951    2.0816 N.2       1 <0>        -0.2814
     12 N3         -8.0928  -11.2000    0.9733 N.am      1 <0>        -0.4049
     13 C10        -6.7795  -10.9027    1.0619 C.2       1 <0>         0.6526
     14 O1         -6.1395  -10.2239    0.2789 O.2       1 <0>        -0.5327
     15 C11        -8.9713  -10.7860   -0.0355 C.ar      1 <0>         0.2496
     16 C12        -8.5078  -10.0005   -1.0828 C.ar      1 <0>        -0.1690
     17 C13        -9.3768   -9.5938   -2.0761 C.ar      1 <0>         0.0106
     18 C14       -10.7074   -9.9675   -2.0285 C.ar      1 <0>        -0.6968
     19 C15       -11.1722  -10.7493   -0.9868 C.ar      1 <0>         0.0094
     20 C16       -10.3068  -11.1648    0.0062 C.ar      1 <0>        -0.1483
     21 S1        -11.8129   -9.4460   -3.2975 S.o2      1 <0>         2.6901
     22 O2        -13.0992   -9.3499   -2.7012 O.2       1 <0>        -0.9419
     23 O3        -11.1921   -8.3475   -3.9509 O.2       1 <0>        -0.9454
     24 N4        -11.8965  -10.6716   -4.4081 N.pl3     1 <0>        -1.0683
     25 C17       -10.7529  -11.0550   -5.1124 C.ar      1 <0>         0.1443
     26 C18       -10.2712  -10.2590   -6.1440 C.ar      1 <0>        -0.1004
     27 C19        -9.1400  -10.6408   -6.8381 C.ar      1 <0>        -0.0985
     28 C20        -8.4871  -11.8142   -6.5075 C.ar      1 <0>        -0.1017
     29 C21        -8.9640  -12.6089   -5.4811 C.ar      1 <0>        -0.1010
     30 C22       -10.0914  -12.2301   -4.7792 C.ar      1 <0>        -0.1066
     31 C23        -7.2536  -12.2281   -7.2677 C.3       1 <0>        -0.1014
     32 C24        -6.0143  -11.6460   -6.5848 C.3       1 <0>        -0.0095
     33 N5         -4.8118  -12.0495   -7.3259 N.4       1 <0>        -0.5051
     34 C25        -3.6220  -11.4906   -6.6701 C.3       1 <0>        -0.0433
     35 C26        -2.3696  -11.9108   -7.4420 C.3       1 <0>         0.1418
     36 H1         -2.4303  -11.5372   -8.4642 H         1 <0>         0.1343
     37 C27        -1.1490  -11.3375   -6.7693 C.ar      1 <0>        -0.2004
     38 C28        -0.6107  -10.1339   -7.1990 C.ar      1 <0>        -0.0544
     39 C29         0.5127   -9.6448   -6.5506 C.ar      1 <0>        -0.1638
     40 C30         1.0551  -10.3678   -5.5047 C.ar      1 <0>         0.1226
     41 N6          0.5166  -11.5093   -5.1233 N.ar      1 <0>        -0.4750
     42 C31        -0.5555  -12.0017   -5.7129 C.ar      1 <0>         0.1172
     43 O4         -2.2776  -13.3367   -7.4607 O.3       1 <0>        -0.5460
     44 H2          1.1032   -6.4124    8.2501 H         1 <0>         0.0548
     45 H3         -0.1601   -5.5390    7.3505 H         1 <0>         0.0534
     46 H4         -0.6013   -6.5580    8.7416 H         1 <0>         0.0541
     47 H5          0.5840   -7.5534    6.1108 H         1 <0>         0.0600
     48 H6          0.1427   -8.5725    7.5018 H         1 <0>         0.0609
     49 H7         -2.2117   -7.8193    7.3068 H         1 <0>         0.0616
     50 H8         -1.7705   -6.8002    5.9158 H         1 <0>         0.0607
     51 H9         -1.0264   -8.8147    4.6760 H         1 <0>         0.0611
     52 H10        -1.4676   -9.8338    6.0671 H         1 <0>         0.0625
     53 H11        -3.8220   -9.0806    5.8721 H         1 <0>         0.0636
     54 H12        -3.3808   -8.0615    4.4810 H         1 <0>         0.0620
     55 H13        -2.6367  -10.0759    3.2413 H         1 <0>         0.0662
     56 H14        -3.0779  -11.0950    4.6324 H         1 <0>         0.0685
     57 H15        -5.4324  -10.3418    4.4374 H         1 <0>         0.0728
     58 H16        -4.9911   -9.3227    3.0463 H         1 <0>         0.0706
     59 H17        -4.2471  -11.3372    1.8066 H         1 <0>         0.0978
     60 H18        -4.6883  -12.3563    3.1977 H         1 <0>         0.1030
     61 H19        -7.2718  -12.7300    3.7003 H         1 <0>         0.2420
     62 H20        -7.4689   -9.7076   -1.1201 H         1 <0>         0.1607
     63 H21        -9.0169   -8.9829   -2.8908 H         1 <0>         0.1468
     64 H22       -12.2120  -11.0389   -0.9521 H         1 <0>         0.1499
     65 H23       -10.6693  -11.7796    0.8167 H         1 <0>         0.1500
     66 H24       -12.7397  -11.1232   -4.5695 H         1 <0>         0.4310
     67 H25       -10.7810   -9.3429   -6.4032 H         1 <0>         0.1435
     68 H26        -8.7649  -10.0225   -7.6402 H         1 <0>         0.1331
     69 H27        -8.4518  -13.5247   -5.2255 H         1 <0>         0.1300
     70 H28       -10.4607  -12.8489   -3.9748 H         1 <0>         0.1356
     71 H29        -7.1834  -13.3157   -7.2820 H         1 <0>         0.0983
     72 H30        -7.3143  -11.8544   -8.2899 H         1 <0>         0.0994
     73 H31        -6.0845  -10.5584   -6.5705 H         1 <0>         0.1361
     74 H32        -5.9536  -12.0196   -5.5626 H         1 <0>         0.1339
     75 H33        -4.7469  -13.0563   -7.3391 H         1 <0>         0.4324
     76 H34        -3.6922  -10.4030   -6.6559 H         1 <0>         0.1456
     77 H35        -3.5613  -11.8642   -5.6480 H         1 <0>         0.1375
     78 H36        -1.0558   -9.5908   -8.0195 H         1 <0>         0.1414
     79 H37         0.9588   -8.7107   -6.8589 H         1 <0>         0.1473
     80 H38         1.9302   -9.9935   -4.9944 H         1 <0>         0.1670
     81 H39        -0.9715  -12.9372   -5.3691 H         1 <0>         0.1524
     82 H40        -2.2202  -13.7387   -6.5831 H         1 <0>         0.3896
     83 H41        -4.8681  -11.7036   -8.2721 H         1 <0>         0.4301
@<TRIPOS>BOND
     1    1    2 1
     2    1   44 1
     3    1   45 1
     4    1   46 1
     5    2    3 1
     6    2   47 1
     7    2   48 1
     8    3    4 1
     9    3   49 1
    10    3   50 1
    11    4    5 1
    12    4   51 1
    13    4   52 1
    14    5    6 1
    15    5   53 1
    16    5   54 1
    17    6    7 1
    18    6   55 1
    19    6   56 1
    20    7    8 1
    21    7   57 1
    22    7   58 1
    23    8    9 1
    24    8   59 1
    25    8   60 1
    26    9   13 am
    27    9   10 1
    28   10   11 2
    29   10   61 1
    30   11   12 1
    31   12   13 am
    32   12   15 1
    33   13   14 2
    34   15   20 ar
    35   15   16 ar
    36   16   17 ar
    37   16   62 1
    38   17   18 ar
    39   17   63 1
    40   18   19 ar
    41   18   21 1
    42   19   20 ar
    43   19   64 1
    44   20   65 1
    45   21   22 2
    46   21   23 2
    47   21   24 1
    48   24   25 1
    49   24   66 1
    50   25   30 ar
    51   25   26 ar
    52   26   27 ar
    53   26   67 1
    54   27   28 ar
    55   27   68 1
    56   28   29 ar
    57   28   31 1
    58   29   30 ar
    59   29   69 1
    60   30   70 1
    61   31   32 1
    62   31   71 1
    63   31   72 1
    64   32   33 1
    65   32   73 1
    66   32   74 1
    67   33   34 1
    68   33   75 1
    69   33   83 1
    70   34   35 1
    71   34   76 1
    72   34   77 1
    73   35   36 1
    74   35   37 1
    75   35   43 1
    76   37   42 ar
    77   37   38 ar
    78   38   39 ar
    79   38   78 1
    80   39   40 ar
    81   39   79 1
    82   40   41 ar
    83   40   80 1
    84   41   42 ar
    85   42   81 1
    86   43   82 1
@<TRIPOS>MOLECULE
CHEMBL163579
   82    85     0     0     0
SMALL
USER_CHARGES

@<TRIPOS>ATOM
      1 C1         -0.0187    1.5258    0.0104 C.3       1 <0>        -0.1545
      2 C2          0.0021   -0.0041    0.0020 C.3       1 <0>        -0.1258
      3 C3          0.7182   -0.4975   -1.2568 C.3       1 <0>        -0.1218
      4 C4          0.7390   -2.0273   -1.2652 C.3       1 <0>        -0.1204
      5 C5          1.4551   -2.5207   -2.5240 C.3       1 <0>        -0.1201
      6 C6          1.4758   -4.0506   -2.5324 C.3       1 <0>        -0.1157
      7 C7          2.1920   -4.5440   -3.7912 C.3       1 <0>        -0.1396
      8 C8          2.2127   -6.0738   -3.7996 C.3       1 <0>         0.1285
      9 N1          2.8984   -6.5463   -5.0050 N.am      1 <0>        -0.5570
     10 C9          2.3061   -6.8101   -6.2157 C.2       1 <0>         0.2681
     11 N2          3.2148   -7.2077   -7.0474 N.2       1 <0>        -0.2780
     12 N3          4.4468   -7.2110   -6.3788 N.am      1 <0>        -0.3974
     13 C10         4.2195   -6.7908   -5.1167 C.2       1 <0>         0.6488
     14 O1          5.0539   -6.6592   -4.2393 O.2       1 <0>        -0.5310
     15 C11         5.6848   -7.5767   -6.9215 C.ar      1 <0>         0.2202
     16 C12         6.8286   -7.5368   -6.1349 C.ar      1 <0>        -0.1666
     17 C13         8.0481   -7.8981   -6.6732 C.ar      1 <0>         0.0034
     18 C14         8.1310   -8.2988   -7.9941 C.ar      1 <0>        -0.6343
     19 C15         6.9940   -8.3391   -8.7802 C.ar      1 <0>        -0.0006
     20 C16         5.7705   -7.9855   -8.2460 C.ar      1 <0>        -0.1505
     21 S1          9.6888   -8.7583   -8.6772 S.o2      1 <0>         2.6121
     22 O2          9.5872   -8.5716  -10.0822 O.2       1 <0>        -1.0248
     23 O3         10.6825   -8.1128   -7.8929 O.2       1 <0>        -1.0267
     24 N4          9.8720  -10.3851   -8.4280 N.2       1 <0>        -1.0821
     25 C17        11.0274  -11.0337   -8.8701 C.ar      1 <0>         0.2970
     26 C18        12.0263  -10.3144   -9.5140 C.ar      1 <0>        -0.2652
     27 C19        13.1676  -10.9587   -9.9494 C.ar      1 <0>        -0.0474
     28 C20        13.3164  -12.3183   -9.7456 C.ar      1 <0>        -0.2374
     29 C21        12.3239  -13.0373   -9.1050 C.ar      1 <0>        -0.0636
     30 C22        11.1826  -12.3983   -8.6619 C.ar      1 <0>        -0.1812
     31 C23        14.5627  -13.0181  -10.2230 C.3       1 <0>        -0.0706
     32 C24        15.6169  -12.9953   -9.1144 C.3       1 <0>        -0.0113
     33 N5         16.8318  -13.6774   -9.5799 N.4       1 <0>        -0.5054
     34 C25        17.8440  -13.6555   -8.5154 C.3       1 <0>        -0.0426
     35 C26        19.1094  -14.3660   -9.0002 C.3       1 <0>         0.1404
     36 H1         19.4977  -13.8554   -9.8814 H         1 <0>         0.1328
     37 C27        20.1477  -14.3435   -7.9082 C.ar      1 <0>        -0.1951
     38 C28        21.1132  -13.3486   -7.8779 C.ar      1 <0>        -0.0553
     39 C29        22.0484  -13.3677   -6.8547 C.ar      1 <0>        -0.1653
     40 C30        21.9878  -14.3707   -5.9055 C.ar      1 <0>         0.1185
     41 N6         21.0555  -15.3011   -5.9661 N.ar      1 <0>        -0.4762
     42 C31        20.1463  -15.3107   -6.9214 C.ar      1 <0>         0.1169
     43 O4         18.7974  -15.7202   -9.3330 O.3       1 <0>        -0.5469
     44 H2          1.0039    1.9031    0.0027 H         1 <0>         0.0534
     45 H3         -0.5459    1.8868   -0.8726 H         1 <0>         0.0533
     46 H4         -0.5289    1.8773    0.9072 H         1 <0>         0.0534
     47 H5          0.5293   -0.3651    0.8851 H         1 <0>         0.0605
     48 H6         -1.0205   -0.3814    0.0098 H         1 <0>         0.0603
     49 H7          0.1910   -0.1364   -2.1398 H         1 <0>         0.0608
     50 H8          1.7408   -0.1202   -1.2645 H         1 <0>         0.0610
     51 H9          1.2661   -2.3884   -0.3821 H         1 <0>         0.0618
     52 H10        -0.2836   -2.4046   -1.2575 H         1 <0>         0.0616
     53 H11         0.9279   -2.1597   -3.4071 H         1 <0>         0.0623
     54 H12         2.4777   -2.1435   -2.5317 H         1 <0>         0.0625
     55 H13         2.0030   -4.4117   -1.6494 H         1 <0>         0.0671
     56 H14         0.4533   -4.4279   -2.5247 H         1 <0>         0.0668
     57 H15         1.6648   -4.1829   -4.6743 H         1 <0>         0.0706
     58 H16         3.2146   -4.1667   -3.7990 H         1 <0>         0.0712
     59 H17         2.7399   -6.4349   -2.9166 H         1 <0>         0.0976
     60 H18         1.1901   -6.4511   -3.7919 H         1 <0>         0.0991
     61 H19         1.2545   -6.7035   -6.4374 H         1 <0>         0.2373
     62 H20         6.7646   -7.2233   -5.1033 H         1 <0>         0.1569
     63 H21         8.9379   -7.8673   -6.0619 H         1 <0>         0.1449
     64 H22         7.0622   -8.6518   -9.8117 H         1 <0>         0.1454
     65 H23         4.8821   -8.0221   -8.8590 H         1 <0>         0.1420
     66 H24        11.9103   -9.2527   -9.6741 H         1 <0>         0.1016
     67 H25        13.9446  -10.4001  -10.4501 H         1 <0>         0.1013
     68 H26        12.4433  -14.0991   -8.9474 H         1 <0>         0.1042
     69 H27        10.4099  -12.9596   -8.1577 H         1 <0>         0.1167
     70 H28        14.3248  -14.0511  -10.4769 H         1 <0>         0.0805
     71 H29        14.9511  -12.5076  -11.1043 H         1 <0>         0.0793
     72 H30        15.8549  -11.9623   -8.8605 H         1 <0>         0.1304
     73 H31        15.2286  -13.5058   -8.2332 H         1 <0>         0.1307
     74 H32        16.6116  -14.6336   -9.8149 H         1 <0>         0.4291
     75 H33        18.0819  -12.6225   -8.2615 H         1 <0>         0.1429
     76 H34        17.4556  -14.1660   -7.6342 H         1 <0>         0.1361
     77 H35        21.1363  -12.5773   -8.6336 H         1 <0>         0.1413
     78 H36        22.8148  -12.6087   -6.8001 H         1 <0>         0.1455
     79 H37        22.7126  -14.3926   -5.1052 H         1 <0>         0.1651
     80 H38        19.3947  -16.0862   -6.9352 H         1 <0>         0.1538
     81 H39        18.4459  -16.2358   -8.5943 H         1 <0>         0.3893
     82 H40        17.1914  -13.2048  -10.3956 H         1 <0>         0.4263
@<TRIPOS>BOND
     1    1    2 1
     2    1   44 1
     3    1   45 1
     4    1   46 1
     5    2    3 1
     6    2   47 1
     7    2   48 1
     8    3    4 1
     9    3   49 1
    10    3   50 1
    11    4    5 1
    12    4   51 1
    13    4   52 1
    14    5    6 1
    15    5   53 1
    16    5   54 1
    17    6    7 1
    18    6   55 1
    19    6   56 1
    20    7    8 1
    21    7   57 1
    22    7   58 1
    23    8    9 1
    24    8   59 1
    25    8   60 1
    26    9   13 am
    27    9   10 1
    28   10   11 2
    29   10   61 1
    30   11   12 1
    31   12   13 am
    32   12   15 1
    33   13   14 2
    34   15   20 ar
    35   15   16 ar
    36   16   17 ar
    37   16   62 1
    38   17   18 ar
    39   17   63 1
    40   18   19 ar
    41   18   21 1
    42   19   20 ar
    43   19   64 1
    44   20   65 1
    45   21   22 2
    46   21   23 2
    47   21   24 1
    48   24   25 1
    49   25   30 ar
    50   25   26 ar
    51   26   27 ar
    52   26   66 1
    53   27   28 ar
    54   27   67 1
    55   28   29 ar
    56   28   31 1
    57   29   30 ar
    58   29   68 1
    59   30   69 1
    60   31   32 1
    61   31   70 1
    62   31   71 1
    63   32   33 1
    64   32   72 1
    65   32   73 1
    66   33   34 1
    67   33   74 1
    68   33   82 1
    69   34   35 1
    70   34   75 1
    71   34   76 1
    72   35   36 1
    73   35   37 1
    74   35   43 1
    75   37   42 ar
    76   37   38 ar
    77   38   39 ar
    78   38   77 1
    79   39   40 ar
    80   39   78 1
    81   40   41 ar
    82   40   79 1
    83   41   42 ar
    84   42   80 1
    85   43   81 1
@<TRIPOS>MOLECULE
CHEMBL565686
   61    64     0     0     0
SMALL
USER_CHARGES

@<TRIPOS>ATOM
      1 C1         -0.0187    1.5258    0.0104 C.3       1 <0>        -0.1803
      2 C2          0.0021   -0.0041    0.0020 C.3       1 <0>         0.0602
      3 C3          0.7421   -0.5109    1.2415 C.3       1 <0>        -0.1807
      4 C4         -1.4333   -0.5336    0.0129 C.3       1 <0>        -0.0897
      5 C5         -2.1387   -0.0476    1.2528 C.ar      1 <0>        -0.1048
      6 C6         -2.0913   -0.8004    2.4123 C.ar      1 <0>        -0.1037
      7 C7         -2.7355   -0.3600    3.5507 C.ar      1 <0>        -0.1101
      8 C8         -3.4345    0.8452    3.5305 C.ar      1 <0>        -0.0188
      9 C9         -3.4789    1.5994    2.3597 C.ar      1 <0>        -0.1102
     10 C10        -2.8264    1.1523    1.2287 C.ar      1 <0>        -0.1039
     11 C11        -4.1295    1.3235    4.7512 C.ar      1 <0>        -0.0658
     12 C12        -4.0806    0.5719    5.9235 C.ar      1 <0>        -0.1058
     13 C13        -4.7284    1.0217    7.0562 C.ar      1 <0>        -0.1169
     14 C14        -5.4256    2.2161    7.0289 C.ar      1 <0>        -0.1078
     15 C15        -5.4778    2.9660    5.8677 C.ar      1 <0>        -0.1169
     16 C16        -4.8285    2.5287    4.7310 C.ar      1 <0>        -0.1058
     17 N1          0.6897   -0.4778   -1.2066 N.4       1 <0>        -0.4992
     18 C17         2.0678    0.0307   -1.2170 C.3       1 <0>        -0.0494
     19 C18         2.7840   -0.4628   -2.4758 C.3       1 <0>         0.1461
     20 C19         4.2310   -0.0447   -2.4270 C.ar      1 <0>        -0.1370
     21 C20         4.6351    1.1233   -3.0484 C.ar      1 <0>        -0.0816
     22 C21         5.9607    1.5125   -3.0071 C.ar      1 <0>        -0.1244
     23 C22         6.8952    0.7329   -2.3408 C.ar      1 <0>         0.1248
     24 C23         6.4930   -0.4405   -1.7157 C.ar      1 <0>         0.0773
     25 C24         5.1556   -0.8266   -1.7554 C.ar      1 <0>         0.1047
     26 O1          4.7728   -1.9758   -1.1370 O.3       1 <0>        -0.3068
     27 C25         5.7263   -3.0410   -1.1116 C.3       1 <0>         0.0501
     28 C26         7.0741   -2.5049   -0.7005 C.2       1 <0>         0.4882
     29 O2          7.8460   -3.2068   -0.0818 O.2       1 <0>        -0.4900
     30 N2          7.4204   -1.2453   -1.0346 N.am      1 <0>        -0.6550
     31 O3          8.1994    1.1157   -2.3002 O.3       1 <0>        -0.4849
     32 O4          2.1628    0.1050   -3.6307 O.3       1 <0>        -0.5445
     33 H1          1.0039    1.9031    0.0027 H         1 <0>         0.0808
     34 H2         -0.5459    1.8868   -0.8726 H         1 <0>         0.0830
     35 H3         -0.5289    1.8773    0.9072 H         1 <0>         0.1100
     36 H4          0.2319   -0.1594    2.1383 H         1 <0>         0.1097
     37 H5          0.7568   -1.6008    1.2356 H         1 <0>         0.0834
     38 H6          1.7647   -0.1336    1.2338 H         1 <0>         0.0814
     39 H7         -1.9605   -0.1726   -0.8702 H         1 <0>         0.0968
     40 H8         -1.4185   -1.6235    0.0069 H         1 <0>         0.0967
     41 H9         -1.5495   -1.7345    2.4267 H         1 <0>         0.1266
     42 H10        -2.6981   -0.9487    4.4554 H         1 <0>         0.1313
     43 H11        -4.0196    2.5340    2.3385 H         1 <0>         0.1313
     44 H12        -2.8562    1.7383    0.3220 H         1 <0>         0.1265
     45 H13        -3.5371   -0.3611    5.9457 H         1 <0>         0.1252
     46 H14        -4.6912    0.4400    7.9653 H         1 <0>         0.1283
     47 H15        -5.9314    2.5642    7.9173 H         1 <0>         0.1277
     48 H16        -6.0239    3.8976    5.8519 H         1 <0>         0.1283
     49 H17        -4.8661    3.1171    3.8262 H         1 <0>         0.1252
     50 H18         0.7033   -1.4867   -1.2121 H         1 <0>         0.4278
     51 H19         2.0530    1.1205   -1.2110 H         1 <0>         0.1399
     52 H20         2.5950   -0.3304   -0.3340 H         1 <0>         0.1480
     53 H21         2.7213   -1.5498   -2.5270 H         1 <0>         0.1361
     54 H22         3.9116    1.7336   -3.5684 H         1 <0>         0.1428
     55 H23         6.2698    2.4252   -3.4949 H         1 <0>         0.1499
     56 H24         5.4043   -3.7992   -0.3977 H         1 <0>         0.1546
     57 H25         5.8000   -3.4858   -2.1040 H         1 <0>         0.1087
     58 H26         8.2941   -0.8972   -0.7971 H         1 <0>         0.4235
     59 H27         8.4214    1.6764   -1.5443 H         1 <0>         0.4011
     60 H28         2.1814    1.0716   -3.6522 H         1 <0>         0.3882
     61 H29         0.2017   -0.1436   -2.0240 H         1 <0>         0.4300
@<TRIPOS>BOND
     1    1    2 1
     2    1   33 1
     3    1   34 1
     4    1   35 1
     5    2    3 1
     6    2    4 1
     7    2   17 1
     8    3   36 1
     9    3   37 1
    10    3   38 1
    11    4    5 1
    12    4   39 1
    13    4   40 1
    14    5   10 ar
    15    5    6 ar
    16    6    7 ar
    17    6   41 1
    18    7    8 ar
    19    7   42 1
    20    8    9 ar
    21    8   11 1
    22    9   10 ar
    23    9   43 1
    24   10   44 1
    25   11   16 ar
    26   11   12 ar
    27   12   13 ar
    28   12   45 1
    29   13   14 ar
    30   13   46 1
    31   14   15 ar
    32   14   47 1
    33   15   16 ar
    34   15   48 1
    35   16   49 1
    36   17   18 1
    37   17   50 1
    38   17   61 1
    39   18   19 1
    40   18   51 1
    41   18   52 1
    42   19   20 1
    43   19   32 1
    44   19   53 1
    45   20   25 ar
    46   20   21 ar
    47   21   22 ar
    48   21   54 1
    49   22   23 ar
    50   22   55 1
    51   23   24 ar
    52   23   31 1
    53   24   30 1
    54   24   25 ar
    55   25   26 1
    56   26   27 1
    57   27   28 1
    58   27   56 1
    59   27   57 1
    60   28   29 2
    61   28   30 am
    62   30   58 1
    63   31   59 1
    64   32   60 1
@<TRIPOS>MOLECULE
CHEMBL565686
   61    64     0     0     0
SMALL
USER_CHARGES

@<TRIPOS>ATOM
      1 C1         -0.0187    1.5258    0.0104 C.3       1 <0>        -0.1810
      2 C2          0.0021   -0.0041    0.0020 C.3       1 <0>         0.0599
      3 C3          0.7421   -0.5109    1.2415 C.3       1 <0>        -0.1808
      4 C4         -1.4333   -0.5336    0.0129 C.3       1 <0>        -0.0896
      5 C5         -2.1387   -0.0476    1.2528 C.ar      1 <0>        -0.1050
      6 C6         -2.0913   -0.8004    2.4123 C.ar      1 <0>        -0.1039
      7 C7         -2.7355   -0.3600    3.5507 C.ar      1 <0>        -0.1102
      8 C8         -3.4345    0.8452    3.5305 C.ar      1 <0>        -0.0185
      9 C9         -3.4789    1.5994    2.3597 C.ar      1 <0>        -0.1101
     10 C10        -2.8264    1.1523    1.2287 C.ar      1 <0>        -0.1038
     11 C11        -4.1295    1.3235    4.7512 C.ar      1 <0>        -0.0660
     12 C12        -4.0806    0.5719    5.9235 C.ar      1 <0>        -0.1058
     13 C13        -4.7284    1.0217    7.0562 C.ar      1 <0>        -0.1169
     14 C14        -5.4256    2.2161    7.0289 C.ar      1 <0>        -0.1076
     15 C15        -5.4778    2.9660    5.8677 C.ar      1 <0>        -0.1169
     16 C16        -4.8285    2.5287    4.7310 C.ar      1 <0>        -0.1058
     17 N1          0.6897   -0.4778   -1.2066 N.4       1 <0>        -0.4987
     18 C17         2.0678    0.0307   -1.2170 C.3       1 <0>        -0.0495
     19 C18         2.7840   -0.4628   -2.4758 C.3       1 <0>         0.1454
     20 C19         4.1978    0.0589   -2.4865 C.ar      1 <0>        -0.1384
     21 C20         5.2282   -0.7251   -1.9995 C.ar      1 <0>        -0.0810
     22 C21         6.5272   -0.2527   -2.0067 C.ar      1 <0>        -0.1248
     23 C22         6.8055    1.0125   -2.5037 C.ar      1 <0>         0.1255
     24 C23         5.7734    1.8023   -2.9935 C.ar      1 <0>         0.0764
     25 C24         4.4666    1.3208   -2.9891 C.ar      1 <0>         0.1068
     26 O1          3.4646    2.1018   -3.4742 O.3       1 <0>        -0.3039
     27 C25         3.6068    3.5137   -3.2985 C.3       1 <0>         0.0499
     28 C26         5.0005    3.9351   -3.6894 C.2       1 <0>         0.4877
     29 O2          5.1946    5.0362   -4.1599 O.2       1 <0>        -0.4896
     30 N2          6.0308    3.0856   -3.5023 N.am      1 <0>        -0.6544
     31 O3          8.0834    1.4774   -2.5108 O.3       1 <0>        -0.4864
     32 O4          2.8033   -1.8916   -2.4837 O.3       1 <0>        -0.5446
     33 H1          1.0039    1.9031    0.0027 H         1 <0>         0.0803
     34 H2         -0.5459    1.8868   -0.8726 H         1 <0>         0.0837
     35 H3         -0.5289    1.8773    0.9072 H         1 <0>         0.1103
     36 H4          0.2319   -0.1594    2.1383 H         1 <0>         0.1103
     37 H5          0.7568   -1.6008    1.2356 H         1 <0>         0.0832
     38 H6          1.7647   -0.1336    1.2338 H         1 <0>         0.0809
     39 H7         -1.9605   -0.1726   -0.8702 H         1 <0>         0.0969
     40 H8         -1.4185   -1.6235    0.0069 H         1 <0>         0.0969
     41 H9         -1.5495   -1.7345    2.4267 H         1 <0>         0.1265
     42 H10        -2.6981   -0.9487    4.4554 H         1 <0>         0.1314
     43 H11        -4.0196    2.5340    2.3385 H         1 <0>         0.1314
     44 H12        -2.8562    1.7383    0.3220 H         1 <0>         0.1265
     45 H13        -3.5371   -0.3611    5.9457 H         1 <0>         0.1252
     46 H14        -4.6912    0.4400    7.9653 H         1 <0>         0.1283
     47 H15        -5.9314    2.5642    7.9173 H         1 <0>         0.1277
     48 H16        -6.0239    3.8976    5.8519 H         1 <0>         0.1283
     49 H17        -4.8661    3.1171    3.8262 H         1 <0>         0.1252
     50 H18         0.7033   -1.4867   -1.2121 H         1 <0>         0.4302
     51 H19         2.0530    1.1205   -1.2110 H         1 <0>         0.1451
     52 H20         2.5950   -0.3304   -0.3340 H         1 <0>         0.1404
     53 H21         2.2568   -0.1017   -3.3589 H         1 <0>         0.1387
     54 H22         5.0167   -1.7105   -1.6115 H         1 <0>         0.1428
     55 H23         7.3270   -0.8695   -1.6245 H         1 <0>         0.1499
     56 H24         2.8816    4.0323   -3.9256 H         1 <0>         0.1545
     57 H25         3.4302    3.7688   -2.2536 H         1 <0>         0.1043
     58 H26         6.9353    3.3542   -3.7272 H         1 <0>         0.4241
     59 H27         8.5732    1.2690   -3.3181 H         1 <0>         0.4028
     60 H28         3.2576   -2.2830   -1.7250 H         1 <0>         0.3877
     61 H29         0.2017   -0.1436   -2.0240 H         1 <0>         0.4282
@<TRIPOS>BOND
     1    1    2 1
     2    1   33 1
     3    1   34 1
     4    1   35 1
     5    2    3 1
     6    2    4 1
     7    2   17 1
     8    3   36 1
     9    3   37 1
    10    3   38 1
    11    4    5 1
    12    4   39 1
    13    4   40 1
    14    5   10 ar
    15    5    6 ar
    16    6    7 ar
    17    6   41 1
    18    7    8 ar
    19    7   42 1
    20    8    9 ar
    21    8   11 1
    22    9   10 ar
    23    9   43 1
    24   10   44 1
    25   11   16 ar
    26   11   12 ar
    27   12   13 ar
    28   12   45 1
    29   13   14 ar
    30   13   46 1
    31   14   15 ar
    32   14   47 1
    33   15   16 ar
    34   15   48 1
    35   16   49 1
    36   17   18 1
    37   17   50 1
    38   17   61 1
    39   18   19 1
    40   18   51 1
    41   18   52 1
    42   19   20 1
    43   19   32 1
    44   19   53 1
    45   20   25 ar
    46   20   21 ar
    47   21   22 ar
    48   21   54 1
    49   22   23 ar
    50   22   55 1
    51   23   24 ar
    52   23   31 1
    53   24   30 1
    54   24   25 ar
    55   25   26 1
    56   26   27 1
    57   27   28 1
    58   27   56 1
    59   27   57 1
    60   28   29 2
    61   28   30 am
    62   30   58 1
    63   31   59 1
    64   32   60 1
@<TRIPOS>MOLECULE
CHEMBL398241
   70    72     0     0     0
SMALL
USER_CHARGES

@<TRIPOS>ATOM
      1 C1         -0.6953    1.8090    0.1509 C.3       1 <0>         0.0211
      2 O1         -0.8997    0.3970    0.2320 O.3       1 <0>        -0.2982
      3 C2         -0.3647   -0.3623   -0.7613 C.ar      1 <0>         0.1279
      4 C3          0.3463    0.2380   -1.7879 C.ar      1 <0>        -0.1629
      5 C4          0.8900   -0.5354   -2.7966 C.ar      1 <0>        -0.1143
      6 C5          0.7258   -1.9081   -2.7842 C.ar      1 <0>        -0.1363
      7 C6          0.0171   -2.5133   -1.7631 C.ar      1 <0>        -0.1480
      8 C7         -0.5251   -1.7445   -0.7457 C.ar      1 <0>         0.1148
      9 O2         -1.2174   -2.3389    0.2627 O.3       1 <0>        -0.2979
     10 C8         -1.3419   -3.7616    0.2135 C.3       1 <0>         0.0219
     11 C9          1.3201   -2.7464   -3.8865 C.3       1 <0>         0.0843
     12 H1          0.8152   -3.7118   -3.9212 H         1 <0>         0.1458
     13 C10         2.8111   -2.9599   -3.6174 C.3       1 <0>        -0.1350
     14 C11         3.3948   -3.8856   -4.6866 C.3       1 <0>        -0.0958
     15 C12         4.8296   -4.2002   -4.3498 C.ar      1 <0>        -0.0815
     16 C13         5.8443   -3.3878   -4.8211 C.ar      1 <0>        -0.1107
     17 C14         7.1605   -3.6757   -4.5125 C.ar      1 <0>        -0.1005
     18 C15         7.4631   -4.7764   -3.7329 C.ar      1 <0>        -0.1059
     19 C16         6.4484   -5.5895   -3.2611 C.ar      1 <0>        -0.0315
     20 C17         5.1304   -5.2973   -3.5652 C.ar      1 <0>        -0.1052
     21 Cl1         6.8276   -6.9719   -2.2819 Cl        1 <0>        -0.0608
     22 N1          1.1484   -2.0574   -5.1725 N.4       1 <0>        -0.5043
     23 C18        -0.2824   -1.9685   -5.4931 C.3       1 <0>        -0.0497
     24 C19        -0.4645   -1.2009   -6.8041 C.3       1 <0>         0.0895
     25 H2          0.0559   -1.7238   -7.6065 H         1 <0>         0.1278
     26 C20        -1.9547   -1.1083   -7.1381 C.3       1 <0>        -0.0979
     27 C21        -2.1277   -0.4613   -8.4881 C.ar      1 <0>        -0.0551
     28 C22        -2.2513    0.9124   -8.5836 C.ar      1 <0>        -0.1936
     29 C23        -2.4098    1.5118   -9.8197 C.ar      1 <0>        -0.1039
     30 C24        -2.4451    0.7360  -10.9665 C.ar      1 <0>         0.0403
     31 C25        -2.3206   -0.6482  -10.8712 C.ar      1 <0>         0.2623
     32 C26        -2.1566   -1.2422   -9.6282 C.ar      1 <0>        -0.2453
     33 N2         -2.3560   -1.4372  -12.0267 N.2       1 <0>        -1.0822
     34 S1         -2.2631   -3.0863  -11.9065 S.o2      1 <0>         2.5256
     35 O3         -0.9639   -3.3395  -11.3896 O.2       1 <0>        -1.0383
     36 O4         -3.4206   -3.4622  -11.1730 O.2       1 <0>        -1.0303
     37 C27        -2.3837   -3.6857  -13.6144 C.3       1 <0>        -0.6354
     38 O5         -2.6014    1.3243  -12.1829 O.3       1 <0>        -0.4844
     39 O6          0.0751    0.1149   -6.6646 O.3       1 <0>        -0.5444
     40 H3          0.3735    2.0226    0.1623 H         1 <0>         0.0601
     41 H4         -1.1314    2.1867   -0.7739 H         1 <0>         0.0614
     42 H5         -1.1720    2.2946    1.0024 H         1 <0>         0.1090
     43 H6          0.4755    1.3102   -1.8003 H         1 <0>         0.1477
     44 H7          1.4440   -0.0662   -3.5962 H         1 <0>         0.1269
     45 H8         -0.1101   -3.5858   -1.7559 H         1 <0>         0.1452
     46 H9         -1.9151   -4.1062    1.0742 H         1 <0>         0.1087
     47 H10        -1.8553   -4.0499   -0.7038 H         1 <0>         0.0591
     48 H11        -0.3504   -4.2140    0.2325 H         1 <0>         0.0585
     49 H12         3.3267   -2.0001   -3.6469 H         1 <0>         0.0938
     50 H13         2.9417   -3.4125   -2.6344 H         1 <0>         0.1148
     51 H14         2.8185   -4.8102   -4.7207 H         1 <0>         0.0917
     52 H15         3.3492   -3.3930   -5.6579 H         1 <0>         0.0767
     53 H16         5.6084   -2.5282   -5.4308 H         1 <0>         0.1295
     54 H17         7.9527   -3.0408   -4.8810 H         1 <0>         0.1366
     55 H18         8.4917   -5.0016   -3.4925 H         1 <0>         0.1368
     56 H19         4.3374   -5.9292   -3.1935 H         1 <0>         0.1340
     57 H20         1.5377   -1.1285   -5.1110 H         1 <0>         0.4266
     58 H21        -0.6939   -2.9722   -5.5996 H         1 <0>         0.1424
     59 H22        -0.8028   -1.4456   -4.6907 H         1 <0>         0.1359
     60 H23        -2.3857   -2.1093   -7.1570 H         1 <0>         0.0846
     61 H24        -2.4603   -0.5093   -6.3806 H         1 <0>         0.0790
     62 H25        -2.2244    1.5190   -7.6905 H         1 <0>         0.1011
     63 H26        -2.5065    2.5851   -9.8907 H         1 <0>         0.1112
     64 H27        -2.0554   -2.3146   -9.5511 H         1 <0>         0.1024
     65 H28        -1.5614   -3.2772  -14.2018 H         1 <0>         0.1167
     66 H29        -2.3300   -4.7743  -13.6220 H         1 <0>         0.1030
     67 H30        -3.3323   -3.3656  -14.0456 H         1 <0>         0.1182
     68 H31        -1.7701    1.5005  -12.6443 H         1 <0>         0.3678
     69 H32        -0.3417    0.6390   -5.9669 H         1 <0>         0.3797
     70 H33         1.6240   -2.5741   -5.8970 H         1 <0>         0.4293
@<TRIPOS>BOND
     1    1    2 1
     2    1   40 1
     3    1   41 1
     4    1   42 1
     5    2    3 1
     6    3    8 ar
     7    3    4 ar
     8    4    5 ar
     9    4   43 1
    10    5    6 ar
    11    5   44 1
    12    6    7 ar
    13    6   11 1
    14    7    8 ar
    15    7   45 1
    16    8    9 1
    17    9   10 1
    18   10   46 1
    19   10   47 1
    20   10   48 1
    21   11   12 1
    22   11   13 1
    23   11   22 1
    24   13   14 1
    25   13   49 1
    26   13   50 1
    27   14   15 1
    28   14   51 1
    29   14   52 1
    30   15   20 ar
    31   15   16 ar
    32   16   17 ar
    33   16   53 1
    34   17   18 ar
    35   17   54 1
    36   18   19 ar
    37   18   55 1
    38   19   20 ar
    39   19   21 1
    40   20   56 1
    41   22   23 1
    42   22   57 1
    43   22   70 1
    44   23   24 1
    45   23   58 1
    46   23   59 1
    47   24   25 1
    48   24   26 1
    49   24   39 1
    50   26   27 1
    51   26   60 1
    52   26   61 1
    53   27   32 ar
    54   27   28 ar
    55   28   29 ar
    56   28   62 1
    57   29   30 ar
    58   29   63 1
    59   30   31 ar
    60   30   38 1
    61   31   32 ar
    62   31   33 1
    63   32   64 1
    64   33   34 1
    65   34   35 2
    66   34   36 2
    67   34   37 1
    68   37   65 1
    69   37   66 1
    70   37   67 1
    71   38   68 1
    72   39   69 1
@<TRIPOS>MOLECULE
CHEMBL398241
   71    73     0     0     0
SMALL
USER_CHARGES

@<TRIPOS>ATOM
      1 C1          0.8049    2.9640   -1.3630 C.3       1 <0>         0.0208
      2 O1          0.7235    1.5710   -1.6707 O.3       1 <0>        -0.2964
      3 C2          1.2502    0.7063   -0.7627 C.ar      1 <0>         0.1306
      4 C3          1.8273    1.1880    0.4013 C.ar      1 <0>        -0.1644
      5 C4          2.3618    0.3077    1.3234 C.ar      1 <0>        -0.1166
      6 C5          2.3226   -1.0539    1.0871 C.ar      1 <0>        -0.1411
      7 C6          1.7488   -1.5411   -0.0724 C.ar      1 <0>        -0.1488
      8 C7          1.2057   -0.6645   -0.9979 C.ar      1 <0>         0.1170
      9 O2          0.6354   -1.1425   -2.1363 O.3       1 <0>        -0.2963
     10 C8          0.6255   -2.5607   -2.3108 C.3       1 <0>         0.0216
     11 C9          2.9072   -2.0091    2.0955 C.3       1 <0>         0.0864
     12 H1          3.1122   -2.9653    1.6140 H         1 <0>         0.1468
     13 C10         1.9113   -2.2168    3.2384 C.3       1 <0>        -0.1372
     14 C11         2.4638   -3.2585    4.2133 C.3       1 <0>        -0.0917
     15 C12         1.4293   -3.5585    5.2673 C.ar      1 <0>        -0.0865
     16 C13         1.3950   -2.8160    6.4332 C.ar      1 <0>        -0.1122
     17 C14         0.4465   -3.0905    7.4003 C.ar      1 <0>        -0.1000
     18 C15        -0.4682   -4.1080    7.2027 C.ar      1 <0>        -0.1034
     19 C16        -0.4344   -4.8511    6.0364 C.ar      1 <0>        -0.0309
     20 C17         0.5116   -4.5718    5.0659 C.ar      1 <0>        -0.1050
     21 Cl1        -1.5827   -6.1290    5.7875 Cl        1 <0>        -0.0563
     22 N1          4.1570   -1.4523    2.6302 N.4       1 <0>        -0.5047
     23 C18         5.1603   -1.3842    1.5594 C.3       1 <0>        -0.0504
     24 C19         6.4249   -0.7042    2.0879 C.3       1 <0>         0.0881
     25 H2          6.8241   -1.2787    2.9238 H         1 <0>         0.1285
     26 C20         7.4699   -0.6332    0.9726 C.3       1 <0>        -0.1072
     27 C21         8.7567   -0.0761    1.5246 C.ar      1 <0>        -0.0692
     28 C22         8.9790    1.2884    1.5118 C.ar      1 <0>        -0.1012
     29 C23        10.1577    1.8055    2.0174 C.ar      1 <0>        -0.1147
     30 C24        11.1197    0.9562    2.5385 C.ar      1 <0>         0.0923
     31 C25        10.8965   -0.4189    2.5518 C.ar      1 <0>         0.1374
     32 C26         9.7095   -0.9300    2.0477 C.ar      1 <0>        -0.1678
     33 N2         11.8653   -1.2819    3.0767 N.pl3     1 <0>        -1.0489
     34 S1         12.0247   -2.8147    2.4703 S.o2      1 <0>         2.6093
     35 O3         13.1450   -3.3602    3.1534 O.2       1 <0>        -0.9412
     36 O4         10.7360   -3.3965    2.6121 O.2       1 <0>        -0.9536
     37 C27        12.4158   -2.5829    0.7142 C.3       1 <0>        -0.6671
     38 O5         12.2796    1.4634    3.0357 O.3       1 <0>        -0.4896
     39 O6          6.1068    0.6178    2.5274 O.3       1 <0>        -0.5483
     40 H3          1.8507    3.2522   -1.2566 H         1 <0>         0.0605
     41 H4          0.3491    3.5411   -2.1675 H         1 <0>         0.1111
     42 H5          0.2769    3.1615   -0.4300 H         1 <0>         0.0614
     43 H6          1.8598    2.2513    0.5880 H         1 <0>         0.1479
     44 H7          2.8112    0.6844    2.2303 H         1 <0>         0.1251
     45 H8          1.7198   -2.6052   -0.2548 H         1 <0>         0.1457
     46 H9          0.1430   -2.8070   -3.2567 H         1 <0>         0.1107
     47 H10         1.6498   -2.9332   -2.3177 H         1 <0>         0.0584
     48 H11         0.0760   -3.0238   -1.4913 H         1 <0>         0.0597
     49 H12         1.7583   -1.2735    3.7628 H         1 <0>         0.0944
     50 H13         0.9614   -2.5657    2.8336 H         1 <0>         0.1172
     51 H14         2.7049   -4.1724    3.6703 H         1 <0>         0.0910
     52 H15         3.3645   -2.8698    4.6884 H         1 <0>         0.0731
     53 H16         2.1099   -2.0215    6.5884 H         1 <0>         0.1276
     54 H17         0.4202   -2.5102    8.3108 H         1 <0>         0.1371
     55 H18        -1.2088   -4.3229    7.9588 H         1 <0>         0.1385
     56 H19         0.5357   -5.1488    4.1532 H         1 <0>         0.1341
     57 H20         3.9855   -0.5253    2.9899 H         1 <0>         0.4276
     58 H21         5.4030   -2.3925    1.2242 H         1 <0>         0.1452
     59 H22         4.7612   -0.8096    0.7235 H         1 <0>         0.1392
     60 H23         7.6472   -1.6332    0.5767 H         1 <0>         0.0983
     61 H24         7.1063    0.0143    0.1747 H         1 <0>         0.0922
     62 H25         8.2302    1.9522    1.1056 H         1 <0>         0.1291
     63 H26        10.3283    2.8719    2.0056 H         1 <0>         0.1386
     64 H27         9.5314   -1.9952    2.0605 H         1 <0>         0.1647
     65 H28        12.4434   -0.9823    3.7957 H         1 <0>         0.4307
     66 H29        13.3407   -2.0138    0.6200 H         1 <0>         0.1360
     67 H30        12.5376   -3.5556    0.2377 H         1 <0>         0.1382
     68 H31        11.6042   -2.0400    0.2298 H         1 <0>         0.1292
     69 H32        12.2430    1.6785    3.9777 H         1 <0>         0.3940
     70 H33         5.7456    1.1866    1.8337 H         1 <0>         0.3864
     71 H34         4.4979   -2.0436    3.3734 H         1 <0>         0.4289
@<TRIPOS>BOND
     1    1    2 1
     2    1   40 1
     3    1   41 1
     4    1   42 1
     5    2    3 1
     6    3    8 ar
     7    3    4 ar
     8    4    5 ar
     9    4   43 1
    10    5    6 ar
    11    5   44 1
    12    6    7 ar
    13    6   11 1
    14    7    8 ar
    15    7   45 1
    16    8    9 1
    17    9   10 1
    18   10   46 1
    19   10   47 1
    20   10   48 1
    21   11   12 1
    22   11   13 1
    23   11   22 1
    24   13   14 1
    25   13   49 1
    26   13   50 1
    27   14   15 1
    28   14   51 1
    29   14   52 1
    30   15   20 ar
    31   15   16 ar
    32   16   17 ar
    33   16   53 1
    34   17   18 ar
    35   17   54 1
    36   18   19 ar
    37   18   55 1
    38   19   20 ar
    39   19   21 1
    40   20   56 1
    41   22   23 1
    42   22   57 1
    43   22   71 1
    44   23   24 1
    45   23   58 1
    46   23   59 1
    47   24   25 1
    48   24   26 1
    49   24   39 1
    50   26   27 1
    51   26   60 1
    52   26   61 1
    53   27   32 ar
    54   27   28 ar
    55   28   29 ar
    56   28   62 1
    57   29   30 ar
    58   29   63 1
    59   30   31 ar
    60   30   38 1
    61   31   32 ar
    62   31   33 1
    63   32   64 1
    64   33   34 1
    65   33   65 1
    66   34   35 2
    67   34   36 2
    68   34   37 1
    69   37   66 1
    70   37   67 1
    71   37   68 1
    72   38   69 1
    73   39   70 1
@<TRIPOS>MOLECULE
CHEMBL29141
   28    29     0     0     0
SMALL
USER_CHARGES

@<TRIPOS>ATOM
      1 C1         -0.0178    1.4648    0.0101 C.3       1 <0>        -0.0465
      2 N1          0.0021   -0.0041    0.0020 N.4       1 <0>        -0.5066
      3 C2          0.6897   -0.4778   -1.2066 C.3       1 <0>        -0.0467
      4 C3          0.7104   -2.0077   -1.2150 C.3       1 <0>         0.1616
      5 C4          1.5209   -2.4926   -2.3893 C.ar      1 <0>        -0.2348
      6 C5          0.8939   -2.8193   -3.5793 C.ar      1 <0>        -0.0380
      7 C6          1.6579   -3.2626   -4.6447 C.ar      1 <0>        -0.2396
      8 C7          3.0277   -3.3838   -4.5399 C.ar      1 <0>         0.3003
      9 C8          3.6908   -3.0581   -3.3404 C.ar      1 <0>        -0.0292
     10 C9          2.8868   -2.6071   -2.2851 C.ar      1 <0>        -0.0482
     11 S1          4.0590   -2.2974   -0.9867 S.3       1 <0>        -0.1213
     12 C10         5.5369   -2.7592   -1.8756 C.2       1 <0>         0.5384
     13 N2          5.0507   -3.1258   -3.0778 N.am      1 <0>        -0.6195
     14 O1          6.6913   -2.7550   -1.4894 O.2       1 <0>        -0.4753
     15 O2          3.7467   -3.8235   -5.6069 O.3       1 <0>        -0.6858
     16 O3         -0.6262   -2.5016   -1.3223 O.3       1 <0>        -0.5547
     17 H1          1.0047    1.8421    0.0024 H         1 <0>         0.1221
     18 H2         -0.5450    1.8259   -0.8730 H         1 <0>         0.1209
     19 H3         -0.5280    1.8163    0.9069 H         1 <0>         0.1223
     20 H4          0.4901   -0.3383    0.8195 H         1 <0>         0.4287
     21 H5          0.1625   -0.1167   -2.0897 H         1 <0>         0.1353
     22 H6          1.7123   -0.1005   -1.2143 H         1 <0>         0.1405
     23 H7          1.1585   -2.3700   -0.2898 H         1 <0>         0.1148
     24 H8         -0.1782   -2.7297   -3.6750 H         1 <0>         0.1132
     25 H9          1.1727   -3.5185   -5.5750 H         1 <0>         0.1177
     26 H10        -1.0871   -2.2181   -2.1237 H         1 <0>         0.3842
     27 H11         5.6593   -3.4271   -3.7704 H         1 <0>         0.4158
     28 H12        -0.9445   -0.3533    0.0092 H         1 <0>         0.4303
@<TRIPOS>BOND
     1    1    2 1
     2    1   17 1
     3    1   18 1
     4    1   19 1
     5    2    3 1
     6    2   20 1
     7    2   28 1
     8    3    4 1
     9    3   21 1
    10    3   22 1
    11    4    5 1
    12    4   16 1
    13    4   23 1
    14    5   10 ar
    15    5    6 ar
    16    6    7 ar
    17    6   24 1
    18    7    8 ar
    19    7   25 1
    20    8    9 ar
    21    8   15 1
    22    9   13 1
    23    9   10 ar
    24   10   11 1
    25   11   12 1
    26   12   13 am
    27   12   14 2
    28   13   27 1
    29   16   26 1
@<TRIPOS>MOLECULE
CHEMBL29141
   28    29     0     0     0
SMALL
USER_CHARGES

@<TRIPOS>ATOM
      1 C1         -0.0178    1.4648    0.0101 C.3       1 <0>        -0.0465
      2 N1          0.0021   -0.0041    0.0020 N.4       1 <0>        -0.5060
      3 C2          0.6897   -0.4778   -1.2066 C.3       1 <0>        -0.0468
      4 C3          0.7104   -2.0077   -1.2150 C.3       1 <0>         0.1614
      5 C4          1.4158   -2.4937   -2.4549 C.ar      1 <0>        -0.2353
      6 C5          2.7623   -2.8111   -2.4093 C.ar      1 <0>        -0.0380
      7 C6          3.3898   -3.2555   -3.5600 C.ar      1 <0>        -0.2399
      8 C7          2.6982   -3.3860   -4.7459 C.ar      1 <0>         0.3003
      9 C8          1.3273   -3.0697   -4.8198 C.ar      1 <0>        -0.0293
     10 C9          0.7235   -2.6290   -3.6347 C.ar      1 <0>        -0.0477
     11 S1         -0.9624   -2.3484   -4.1193 S.3       1 <0>        -0.1200
     12 C10        -0.8071   -2.8235   -5.8332 C.2       1 <0>         0.5381
     13 N2          0.4978   -3.1466   -5.9284 N.am      1 <0>        -0.6197
     14 O1         -1.6616   -2.8403   -6.7000 O.2       1 <0>        -0.4753
     15 O2          3.3472   -3.8247   -5.8573 O.3       1 <0>        -0.6858
     16 O3          1.4016   -2.4810   -0.0573 O.3       1 <0>        -0.5553
     17 H1          1.0047    1.8421    0.0024 H         1 <0>         0.1210
     18 H2         -0.5450    1.8259   -0.8730 H         1 <0>         0.1220
     19 H3         -0.5280    1.8163    0.9069 H         1 <0>         0.1223
     20 H4          0.4901   -0.3383    0.8195 H         1 <0>         0.4302
     21 H5          0.1625   -0.1167   -2.0897 H         1 <0>         0.1403
     22 H6          1.7123   -0.1005   -1.2143 H         1 <0>         0.1356
     23 H7         -0.3122   -2.3849   -1.2073 H         1 <0>         0.1156
     24 H8          3.3164   -2.7129   -1.4874 H         1 <0>         0.1131
     25 H9          4.4403   -3.5043   -3.5288 H         1 <0>         0.1176
     26 H10         2.3198   -2.1835    0.0016 H         1 <0>         0.3838
     27 H11         0.8572   -3.4487   -6.7772 H         1 <0>         0.4157
     28 H12        -0.9445   -0.3533    0.0092 H         1 <0>         0.4286
@<TRIPOS>BOND
     1    1    2 1
     2    1   17 1
     3    1   18 1
     4    1   19 1
     5    2    3 1
     6    2   20 1
     7    2   28 1
     8    3    4 1
     9    3   21 1
    10    3   22 1
    11    4    5 1
    12    4   16 1
    13    4   23 1
    14    5   10 ar
    15    5    6 ar
    16    6    7 ar
    17    6   24 1
    18    7    8 ar
    19    7   25 1
    20    8    9 ar
    21    8   15 1
    22    9   13 1
    23    9   10 ar
    24   10   11 1
    25   11   12 1
    26   12   13 am
    27   12   14 2
    28   13   27 1
    29   16   26 1
@<TRIPOS>MOLECULE
CHEMBL308126
   76    79     0     0     0
SMALL
USER_CHARGES

@<TRIPOS>ATOM
      1 C1         13.3648  -21.0285  -14.0478 C.3       1 <0>        -0.1545
      2 C2         12.1143  -20.7947  -13.1979 C.3       1 <0>        -0.1266
      3 C3         12.0045  -19.3088  -12.8501 C.3       1 <0>        -0.1197
      4 C4         10.7540  -19.0749  -12.0002 C.3       1 <0>        -0.1178
      5 C5         10.6443  -17.5890  -11.6524 C.3       1 <0>        -0.1318
      6 C6          9.3937  -17.3552  -10.8025 C.3       1 <0>         0.1348
      7 N1          9.2886  -15.9324  -10.4695 N.am      1 <0>        -0.7387
      8 C7          8.2580  -15.4895   -9.7224 C.2       1 <0>         0.7035
      9 O1          7.4154  -16.2708   -9.3248 O.2       1 <0>        -0.5662
     10 N2          8.1613  -14.1806   -9.4160 N.am      1 <0>        -0.6890
     11 C8          7.0417  -13.7047   -8.7244 C.ar      1 <0>         0.2253
     12 C9          6.5290  -12.4466   -9.0122 C.ar      1 <0>        -0.1676
     13 C10         5.4236  -11.9800   -8.3281 C.ar      1 <0>         0.0063
     14 C11         4.8275  -12.7641   -7.3576 C.ar      1 <0>        -0.6939
     15 C12         5.3360  -14.0171   -7.0683 C.ar      1 <0>         0.0022
     16 C13         6.4376  -14.4918   -7.7528 C.ar      1 <0>        -0.1419
     17 S1          3.4175  -12.1651   -6.4872 S.o2      1 <0>         2.6924
     18 O2          3.4445  -12.7729   -5.2030 O.2       1 <0>        -0.9512
     19 O3          3.4007  -10.7551   -6.6624 O.2       1 <0>        -0.9498
     20 N3          2.0774  -12.7542   -7.2615 N.pl3     1 <0>        -1.0540
     21 C14         1.8139  -12.3826   -8.5846 C.ar      1 <0>         0.1056
     22 C15         1.9312  -11.0535   -8.9694 C.ar      1 <0>        -0.1121
     23 C16         1.6714  -10.6876  -10.2755 C.ar      1 <0>        -0.1275
     24 C17         1.2934  -11.6473  -11.2029 C.ar      1 <0>         0.1276
     25 C18         1.1756  -12.9750  -10.8193 C.ar      1 <0>        -0.1902
     26 C19         1.4405  -13.3435   -9.5149 C.ar      1 <0>        -0.0844
     27 O4          1.0378  -11.2861  -12.4889 O.3       1 <0>        -0.3135
     28 C20         0.6533  -12.3259  -13.3905 C.3       1 <0>         0.0662
     29 C21         0.4095  -11.7323  -14.7795 C.3       1 <0>         0.1359
     30 C22        -0.1366  -12.8022  -15.6886 C.ar      1 <0>        -0.0704
     31 C23        -1.0989  -13.6661  -15.1849 C.ar      1 <0>        -0.1286
     32 C24        -1.6331  -14.6613  -15.9830 C.ar      1 <0>         0.0805
     33 C25        -1.2017  -14.7957  -17.2997 C.ar      1 <0>         0.0879
     34 C26        -0.2408  -13.9337  -17.7968 C.ar      1 <0>        -0.1313
     35 C27         0.2933  -12.9384  -16.9913 C.ar      1 <0>        -0.0509
     36 C28         1.3459  -12.0313  -17.5757 C.3       1 <0>        -0.0796
     37 C29         1.4996  -10.7823  -16.7075 C.3       1 <0>         0.0537
     38 N4          1.6710  -11.2041  -15.3082 N.3       1 <0>        -0.6776
     39 O5         -1.7227  -15.7693  -18.0935 O.3       1 <0>        -0.4869
     40 O6         -2.5754  -15.5052  -15.4836 O.3       1 <0>        -0.4862
     41 H1         13.2947  -20.4448  -14.9656 H         1 <0>         0.0535
     42 H2         14.2477  -20.7203  -13.4877 H         1 <0>         0.0535
     43 H3         13.4430  -22.0871  -14.2956 H         1 <0>         0.0543
     44 H4         11.2315  -21.1029  -13.7580 H         1 <0>         0.0616
     45 H5         12.1844  -21.3784  -12.2801 H         1 <0>         0.0616
     46 H6         12.8874  -19.0006  -12.2900 H         1 <0>         0.0621
     47 H7         11.9345  -18.7250  -13.7679 H         1 <0>         0.0621
     48 H8          9.8712  -19.3831  -12.5603 H         1 <0>         0.0668
     49 H9         10.8241  -19.6587  -11.0824 H         1 <0>         0.0668
     50 H10        11.5271  -17.2808  -11.0923 H         1 <0>         0.0702
     51 H11        10.5742  -17.0053  -12.5702 H         1 <0>         0.0701
     52 H12         8.5109  -17.6634  -11.3626 H         1 <0>         0.0701
     53 H13         9.4638  -17.9389   -9.8847 H         1 <0>         0.0702
     54 H14         9.9608  -15.3091  -10.7867 H         1 <0>         0.3994
     55 H15         8.8678  -13.5684   -9.6749 H         1 <0>         0.4115
     56 H16         6.9943  -11.8336   -9.7699 H         1 <0>         0.1367
     57 H17         5.0246  -11.0015   -8.5513 H         1 <0>         0.1460
     58 H18         4.8684  -14.6270   -6.3095 H         1 <0>         0.1420
     59 H19         6.8314  -15.4724   -7.5298 H         1 <0>         0.1510
     60 H20         1.4751  -13.3569   -6.7979 H         1 <0>         0.4267
     61 H21         2.2252  -10.3061   -8.2473 H         1 <0>         0.1641
     62 H22         1.7623   -9.6539  -10.5749 H         1 <0>         0.1389
     63 H23         0.8808  -13.7215  -11.5419 H         1 <0>         0.1322
     64 H24         1.3533  -14.3781   -9.2175 H         1 <0>         0.1319
     65 H25         1.4482  -13.0696  -13.4477 H         1 <0>         0.0773
     66 H26        -0.2611  -12.7983  -13.0317 H         1 <0>         0.0712
     67 H27        -0.3155  -10.9221  -14.7022 H         1 <0>         0.0656
     68 H28        -1.4330  -13.5603  -14.1633 H         1 <0>         0.1351
     69 H29         0.0952  -14.0358  -18.8181 H         1 <0>         0.1359
     70 H30         2.2973  -12.5616  -17.6185 H         1 <0>         0.0889
     71 H31         1.0515  -11.7376  -18.5833 H         1 <0>         0.0821
     72 H32         2.3747  -10.2179  -17.0296 H         1 <0>         0.0859
     73 H33         0.6074  -10.1625  -16.7964 H         1 <0>         0.0401
     74 H34         2.0105  -10.4425  -14.7400 H         1 <0>         0.3573
     75 H35        -2.5077  -15.4958  -18.5875 H         1 <0>         0.3890
     76 H36        -3.4837  -15.1959  -15.6036 H         1 <0>         0.3882
@<TRIPOS>BOND
     1    1    2 1
     2    1   41 1
     3    1   42 1
     4    1   43 1
     5    2    3 1
     6    2   44 1
     7    2   45 1
     8    3    4 1
     9    3   46 1
    10    3   47 1
    11    4    5 1
    12    4   48 1
    13    4   49 1
    14    5    6 1
    15    5   50 1
    16    5   51 1
    17    6    7 1
    18    6   52 1
    19    6   53 1
    20    7    8 am
    21    7   54 1
    22    8    9 2
    23    8   10 am
    24   10   11 1
    25   10   55 1
    26   11   16 ar
    27   11   12 ar
    28   12   13 ar
    29   12   56 1
    30   13   14 ar
    31   13   57 1
    32   14   15 ar
    33   14   17 1
    34   15   16 ar
    35   15   58 1
    36   16   59 1
    37   17   18 2
    38   17   19 2
    39   17   20 1
    40   20   21 1
    41   20   60 1
    42   21   26 ar
    43   21   22 ar
    44   22   23 ar
    45   22   61 1
    46   23   24 ar
    47   23   62 1
    48   24   25 ar
    49   24   27 1
    50   25   26 ar
    51   25   63 1
    52   26   64 1
    53   27   28 1
    54   28   29 1
    55   28   65 1
    56   28   66 1
    57   29   38 1
    58   29   30 1
    59   29   67 1
    60   30   35 ar
    61   30   31 ar
    62   31   32 ar
    63   31   68 1
    64   32   33 ar
    65   32   40 1
    66   33   34 ar
    67   33   39 1
    68   34   35 ar
    69   34   69 1
    70   35   36 1
    71   36   37 1
    72   36   70 1
    73   36   71 1
    74   37   38 1
    75   37   72 1
    76   37   73 1
    77   38   74 1
    78   39   75 1
    79   40   76 1
@<TRIPOS>MOLECULE
CHEMBL308126
   77    80     0     0     0
SMALL
USER_CHARGES

@<TRIPOS>ATOM
      1 C1         13.3648  -21.0285  -14.0478 C.3       1 <0>        -0.1551
      2 C2         12.1143  -20.7947  -13.1979 C.3       1 <0>        -0.1264
      3 C3         12.0045  -19.3088  -12.8501 C.3       1 <0>        -0.1199
      4 C4         10.7540  -19.0749  -12.0002 C.3       1 <0>        -0.1175
      5 C5         10.6443  -17.5890  -11.6524 C.3       1 <0>        -0.1321
      6 C6          9.3937  -17.3552  -10.8025 C.3       1 <0>         0.1349
      7 N1          9.2886  -15.9324  -10.4695 N.am      1 <0>        -0.7377
      8 C7          8.2580  -15.4895   -9.7224 C.2       1 <0>         0.7037
      9 O1          7.4154  -16.2708   -9.3248 O.2       1 <0>        -0.5673
     10 N2          8.1613  -14.1806   -9.4160 N.am      1 <0>        -0.6894
     11 C8          7.0417  -13.7047   -8.7244 C.ar      1 <0>         0.2289
     12 C9          6.5290  -12.4466   -9.0122 C.ar      1 <0>        -0.1683
     13 C10         5.4236  -11.9800   -8.3281 C.ar      1 <0>         0.0040
     14 C11         4.8275  -12.7641   -7.3576 C.ar      1 <0>        -0.6966
     15 C12         5.3360  -14.0171   -7.0683 C.ar      1 <0>         0.0034
     16 C13         6.4376  -14.4918   -7.7528 C.ar      1 <0>        -0.1407
     17 S1          3.4175  -12.1651   -6.4872 S.o2      1 <0>         2.6903
     18 O2          3.4445  -12.7729   -5.2030 O.2       1 <0>        -0.9426
     19 O3          3.4007  -10.7551   -6.6624 O.2       1 <0>        -0.9480
     20 N3          2.0774  -12.7542   -7.2615 N.pl3     1 <0>        -1.0576
     21 C14         1.8139  -12.3826   -8.5846 C.ar      1 <0>         0.1296
     22 C15         1.9312  -11.0535   -8.9694 C.ar      1 <0>        -0.1124
     23 C16         1.6714  -10.6876  -10.2755 C.ar      1 <0>        -0.1140
     24 C17         1.2934  -11.6473  -11.2029 C.ar      1 <0>         0.1043
     25 C18         1.1756  -12.9750  -10.8193 C.ar      1 <0>        -0.1842
     26 C19         1.4405  -13.3435   -9.5149 C.ar      1 <0>        -0.0875
     27 O4          1.0378  -11.2861  -12.4889 O.3       1 <0>        -0.3175
     28 C20         0.6533  -12.3259  -13.3905 C.3       1 <0>         0.0279
     29 C21         0.4095  -11.7323  -14.7795 C.3       1 <0>         0.0938
     30 C22         1.6457  -10.9990  -15.2300 C.ar      1 <0>        -0.1168
     31 C23         2.8837  -11.5709  -14.9743 C.ar      1 <0>        -0.0983
     32 C24         4.0447  -10.9331  -15.3725 C.ar      1 <0>         0.0982
     33 C25         3.9689   -9.7108  -16.0343 C.ar      1 <0>         0.1153
     34 C26         2.7323   -9.1441  -16.2867 C.ar      1 <0>        -0.1193
     35 C27         1.5717   -9.7872  -15.8838 C.ar      1 <0>        -0.0753
     36 C28         0.2459   -9.1296  -16.1718 C.3       1 <0>        -0.1074
     37 C29        -0.8822  -10.1509  -16.0220 C.3       1 <0>        -0.0023
     38 N4         -0.7377  -10.8221  -14.7214 N.4       1 <0>        -0.5051
     39 O5          5.1049   -9.0767  -16.4304 O.3       1 <0>        -0.4818
     40 O6          5.2555  -11.4981  -15.1188 O.3       1 <0>        -0.4808
     41 H1         13.2947  -20.4448  -14.9656 H         1 <0>         0.0532
     42 H2         14.2477  -20.7203  -13.4877 H         1 <0>         0.0543
     43 H3         13.4430  -22.0871  -14.2956 H         1 <0>         0.0552
     44 H4         11.2315  -21.1029  -13.7580 H         1 <0>         0.0610
     45 H5         12.1844  -21.3784  -12.2801 H         1 <0>         0.0622
     46 H6         12.8874  -19.0006  -12.2900 H         1 <0>         0.0630
     47 H7         11.9345  -18.7250  -13.7679 H         1 <0>         0.0616
     48 H8          9.8712  -19.3831  -12.5603 H         1 <0>         0.0658
     49 H9         10.8241  -19.6587  -11.0824 H         1 <0>         0.0675
     50 H10        11.5271  -17.2808  -11.0923 H         1 <0>         0.0714
     51 H11        10.5742  -17.0053  -12.5702 H         1 <0>         0.0695
     52 H12         8.5109  -17.6634  -11.3626 H         1 <0>         0.0692
     53 H13         9.4638  -17.9389   -9.8847 H         1 <0>         0.0714
     54 H14         9.9608  -15.3091  -10.7867 H         1 <0>         0.4001
     55 H15         8.8678  -13.5684   -9.6749 H         1 <0>         0.4126
     56 H16         6.9943  -11.8336   -9.7699 H         1 <0>         0.1367
     57 H17         5.0246  -11.0015   -8.5513 H         1 <0>         0.1441
     58 H18         4.8684  -14.6270   -6.3095 H         1 <0>         0.1434
     59 H19         6.8314  -15.4724   -7.5298 H         1 <0>         0.1529
     60 H20         1.4751  -13.3569   -6.7979 H         1 <0>         0.4301
     61 H21         2.2252  -10.3061   -8.2473 H         1 <0>         0.1697
     62 H22         1.7623   -9.6539  -10.5749 H         1 <0>         0.1404
     63 H23         0.8808  -13.7215  -11.5419 H         1 <0>         0.1315
     64 H24         1.3533  -14.3781   -9.2175 H         1 <0>         0.1376
     65 H25         1.4482  -13.0696  -13.4477 H         1 <0>         0.1098
     66 H26        -0.2611  -12.7983  -13.0317 H         1 <0>         0.0944
     67 H27         0.1941  -12.5377  -15.4817 H         1 <0>         0.1657
     68 H28         2.9413  -12.5194  -14.4611 H         1 <0>         0.1407
     69 H29         2.6706   -8.1958  -16.7999 H         1 <0>         0.1466
     70 H30         0.0881   -8.3099  -15.4709 H         1 <0>         0.1085
     71 H31         0.2486   -8.7393  -17.1896 H         1 <0>         0.1264
     72 H32        -1.8450   -9.6419  -16.0663 H         1 <0>         0.1447
     73 H33        -0.8176  -10.8876  -16.8228 H         1 <0>         0.1364
     74 H34        -1.5751  -11.3469  -14.5174 H         1 <0>         0.4352
     75 H35         5.3986   -9.3152  -17.3203 H         1 <0>         0.4002
     76 H36         5.5713  -12.0832  -15.8209 H         1 <0>         0.3973
     77 H37        -0.5857  -10.1327  -14.0005 H         1 <0>         0.4377
@<TRIPOS>BOND
     1    1    2 1
     2    1   41 1
     3    1   42 1
     4    1   43 1
     5    2    3 1
     6    2   44 1
     7    2   45 1
     8    3    4 1
     9    3   46 1
    10    3   47 1
    11    4    5 1
    12    4   48 1
    13    4   49 1
    14    5    6 1
    15    5   50 1
    16    5   51 1
    17    6    7 1
    18    6   52 1
    19    6   53 1
    20    7    8 am
    21    7   54 1
    22    8    9 2
    23    8   10 am
    24   10   11 1
    25   10   55 1
    26   11   16 ar
    27   11   12 ar
    28   12   13 ar
    29   12   56 1
    30   13   14 ar
    31   13   57 1
    32   14   15 ar
    33   14   17 1
    34   15   16 ar
    35   15   58 1
    36   16   59 1
    37   17   18 2
    38   17   19 2
    39   17   20 1
    40   20   21 1
    41   20   60 1
    42   21   26 ar
    43   21   22 ar
    44   22   23 ar
    45   22   61 1
    46   23   24 ar
    47   23   62 1
    48   24   25 ar
    49   24   27 1
    50   25   26 ar
    51   25   63 1
    52   26   64 1
    53   27   28 1
    54   28   29 1
    55   28   65 1
    56   28   66 1
    57   29   38 1
    58   29   30 1
    59   29   67 1
    60   30   35 ar
    61   30   31 ar
    62   31   32 ar
    63   31   68 1
    64   32   33 ar
    65   32   40 1
    66   33   34 ar
    67   33   39 1
    68   34   35 ar
    69   34   69 1
    70   35   36 1
    71   36   37 1
    72   36   70 1
    73   36   71 1
    74   37   38 1
    75   37   72 1
    76   37   73 1
    77   38   74 1
    78   38   77 1
    79   39   75 1
    80   40   76 1
@<TRIPOS>MOLECULE
CHEMBL308126
   76    79     0     0     0
SMALL
USER_CHARGES

@<TRIPOS>ATOM
      1 C1         13.3648  -21.0285  -14.0478 C.3       1 <0>        -0.1546
      2 C2         12.1143  -20.7947  -13.1979 C.3       1 <0>        -0.1264
      3 C3         12.0045  -19.3088  -12.8501 C.3       1 <0>        -0.1199
      4 C4         10.7540  -19.0749  -12.0002 C.3       1 <0>        -0.1176
      5 C5         10.6443  -17.5890  -11.6524 C.3       1 <0>        -0.1320
      6 C6          9.3937  -17.3552  -10.8025 C.3       1 <0>         0.1350
      7 N1          9.2886  -15.9324  -10.4695 N.am      1 <0>        -0.7387
      8 C7          8.2580  -15.4895   -9.7224 C.2       1 <0>         0.7037
      9 O1          7.4154  -16.2708   -9.3248 O.2       1 <0>        -0.5668
     10 N2          8.1613  -14.1806   -9.4160 N.am      1 <0>        -0.6890
     11 C8          7.0417  -13.7047   -8.7244 C.ar      1 <0>         0.2249
     12 C9          6.5290  -12.4466   -9.0122 C.ar      1 <0>        -0.1679
     13 C10         5.4236  -11.9800   -8.3281 C.ar      1 <0>         0.0063
     14 C11         4.8275  -12.7641   -7.3576 C.ar      1 <0>        -0.6937
     15 C12         5.3360  -14.0171   -7.0683 C.ar      1 <0>         0.0020
     16 C13         6.4376  -14.4918   -7.7528 C.ar      1 <0>        -0.1420
     17 S1          3.4175  -12.1651   -6.4872 S.o2      1 <0>         2.6921
     18 O2          3.4445  -12.7729   -5.2030 O.2       1 <0>        -0.9514
     19 O3          3.4007  -10.7551   -6.6624 O.2       1 <0>        -0.9491
     20 N3          2.0774  -12.7542   -7.2615 N.pl3     1 <0>        -1.0539
     21 C14         1.8139  -12.3826   -8.5846 C.ar      1 <0>         0.1040
     22 C15         1.9312  -11.0535   -8.9694 C.ar      1 <0>        -0.1112
     23 C16         1.6714  -10.6876  -10.2755 C.ar      1 <0>        -0.1258
     24 C17         1.2934  -11.6473  -11.2029 C.ar      1 <0>         0.1264
     25 C18         1.1756  -12.9750  -10.8193 C.ar      1 <0>        -0.1946
     26 C19         1.4405  -13.3435   -9.5149 C.ar      1 <0>        -0.0851
     27 O4          1.0378  -11.2861  -12.4889 O.3       1 <0>        -0.2949
     28 C20         0.6533  -12.3259  -13.3905 C.3       1 <0>         0.0666
     29 C21         0.4095  -11.7323  -14.7795 C.3       1 <0>         0.1327
     30 C22         0.1494  -12.8476  -15.7582 C.ar      1 <0>        -0.1080
     31 C23         0.9351  -13.9889  -15.6798 C.ar      1 <0>        -0.1256
     32 C24         0.7365  -15.0374  -16.5597 C.ar      1 <0>         0.0818
     33 C25        -0.2580  -14.9455  -17.5293 C.ar      1 <0>         0.0879
     34 C26        -1.0401  -13.8068  -17.6023 C.ar      1 <0>        -0.1280
     35 C27        -0.8381  -12.7588  -16.7160 C.ar      1 <0>        -0.0625
     36 C28        -1.7236  -11.5441  -16.8287 C.3       1 <0>        -0.1222
     37 C29        -1.0981  -10.3700  -16.0753 C.3       1 <0>         0.0544
     38 N4         -0.7382  -10.8217  -14.7219 N.3       1 <0>        -0.6633
     39 O5         -0.4594  -15.9698  -18.4009 O.3       1 <0>        -0.4866
     40 O6          1.5098  -16.1532  -16.4782 O.3       1 <0>        -0.4862
     41 H1         13.2947  -20.4448  -14.9656 H         1 <0>         0.0536
     42 H2         14.2477  -20.7203  -13.4877 H         1 <0>         0.0535
     43 H3         13.4430  -22.0871  -14.2956 H         1 <0>         0.0543
     44 H4         11.2315  -21.1029  -13.7580 H         1 <0>         0.0616
     45 H5         12.1844  -21.3784  -12.2801 H         1 <0>         0.0616
     46 H6         12.8874  -19.0006  -12.2900 H         1 <0>         0.0622
     47 H7         11.9345  -18.7250  -13.7679 H         1 <0>         0.0622
     48 H8          9.8712  -19.3831  -12.5603 H         1 <0>         0.0666
     49 H9         10.8241  -19.6587  -11.0824 H         1 <0>         0.0667
     50 H10        11.5271  -17.2808  -11.0923 H         1 <0>         0.0703
     51 H11        10.5742  -17.0053  -12.5702 H         1 <0>         0.0702
     52 H12         8.5109  -17.6634  -11.3626 H         1 <0>         0.0698
     53 H13         9.4638  -17.9389   -9.8847 H         1 <0>         0.0702
     54 H14         9.9608  -15.3091  -10.7867 H         1 <0>         0.3995
     55 H15         8.8678  -13.5684   -9.6749 H         1 <0>         0.4116
     56 H16         6.9943  -11.8336   -9.7699 H         1 <0>         0.1367
     57 H17         5.0246  -11.0015   -8.5513 H         1 <0>         0.1464
     58 H18         4.8684  -14.6270   -6.3095 H         1 <0>         0.1420
     59 H19         6.8314  -15.4724   -7.5298 H         1 <0>         0.1509
     60 H20         1.4751  -13.3569   -6.7979 H         1 <0>         0.4264
     61 H21         2.2252  -10.3061   -8.2473 H         1 <0>         0.1640
     62 H22         1.7623   -9.6539  -10.5749 H         1 <0>         0.1404
     63 H23         0.8808  -13.7215  -11.5419 H         1 <0>         0.1296
     64 H24         1.3533  -14.3781   -9.2175 H         1 <0>         0.1306
     65 H25         1.4482  -13.0696  -13.4477 H         1 <0>         0.0716
     66 H26        -0.2611  -12.7983  -13.0317 H         1 <0>         0.0659
     67 H27         1.2936  -11.1775  -15.0937 H         1 <0>         0.1085
     68 H28         1.7066  -14.0587  -14.9273 H         1 <0>         0.1359
     69 H29        -1.8121  -13.7330  -18.3539 H         1 <0>         0.1357
     70 H30        -1.8413  -11.2784  -17.8793 H         1 <0>         0.0864
     71 H31        -2.7013  -11.7682  -16.4020 H         1 <0>         0.0828
     72 H32        -0.2033  -10.0338  -16.5991 H         1 <0>         0.0798
     73 H33        -1.8162   -9.5527  -16.0097 H         1 <0>         0.0898
     74 H34        -1.5245  -11.2594  -14.2657 H         1 <0>         0.3441
     75 H35        -1.0970  -16.6284  -18.0931 H         1 <0>         0.3894
     76 H36         1.1538  -16.8366  -15.8939 H         1 <0>         0.3885
@<TRIPOS>BOND
     1    1    2 1
     2    1   41 1
     3    1   42 1
     4    1   43 1
     5    2    3 1
     6    2   44 1
     7    2   45 1
     8    3    4 1
     9    3   46 1
    10    3   47 1
    11    4    5 1
    12    4   48 1
    13    4   49 1
    14    5    6 1
    15    5   50 1
    16    5   51 1
    17    6    7 1
    18    6   52 1
    19    6   53 1
    20    7    8 am
    21    7   54 1
    22    8    9 2
    23    8   10 am
    24   10   11 1
    25   10   55 1
    26   11   16 ar
    27   11   12 ar
    28   12   13 ar
    29   12   56 1
    30   13   14 ar
    31   13   57 1
    32   14   15 ar
    33   14   17 1
    34   15   16 ar
    35   15   58 1
    36   16   59 1
    37   17   18 2
    38   17   19 2
    39   17   20 1
    40   20   21 1
    41   20   60 1
    42   21   26 ar
    43   21   22 ar
    44   22   23 ar
    45   22   61 1
    46   23   24 ar
    47   23   62 1
    48   24   25 ar
    49   24   27 1
    50   25   26 ar
    51   25   63 1
    52   26   64 1
    53   27   28 1
    54   28   29 1
    55   28   65 1
    56   28   66 1
    57   29   38 1
    58   29   30 1
    59   29   67 1
    60   30   35 ar
    61   30   31 ar
    62   31   32 ar
    63   31   68 1
    64   32   33 ar
    65   32   40 1
    66   33   34 ar
    67   33   39 1
    68   34   35 ar
    69   34   69 1
    70   35   36 1
    71   36   37 1
    72   36   70 1
    73   36   71 1
    74   37   38 1
    75   37   72 1
    76   37   73 1
    77   38   74 1
    78   39   75 1
    79   40   76 1
@<TRIPOS>MOLECULE
CHEMBL308126
   77    80     0     0     0
SMALL
USER_CHARGES

@<TRIPOS>ATOM
      1 C1         13.3648  -21.0285  -14.0478 C.3       1 <0>        -0.1552
      2 C2         12.1143  -20.7947  -13.1979 C.3       1 <0>        -0.1265
      3 C3         12.0045  -19.3088  -12.8501 C.3       1 <0>        -0.1198
      4 C4         10.7540  -19.0749  -12.0002 C.3       1 <0>        -0.1177
      5 C5         10.6443  -17.5890  -11.6524 C.3       1 <0>        -0.1319
      6 C6          9.3937  -17.3552  -10.8025 C.3       1 <0>         0.1345
      7 N1          9.2886  -15.9324  -10.4695 N.am      1 <0>        -0.7376
      8 C7          8.2580  -15.4895   -9.7224 C.2       1 <0>         0.7029
      9 O1          7.4154  -16.2708   -9.3248 O.2       1 <0>        -0.5664
     10 N2          8.1613  -14.1806   -9.4160 N.am      1 <0>        -0.6899
     11 C8          7.0417  -13.7047   -8.7244 C.ar      1 <0>         0.2283
     12 C9          6.5290  -12.4466   -9.0122 C.ar      1 <0>        -0.1703
     13 C10         5.4236  -11.9800   -8.3281 C.ar      1 <0>         0.0032
     14 C11         4.8275  -12.7641   -7.3576 C.ar      1 <0>        -0.6960
     15 C12         5.3360  -14.0171   -7.0683 C.ar      1 <0>         0.0046
     16 C13         6.4376  -14.4918   -7.7528 C.ar      1 <0>        -0.1402
     17 S1          3.4175  -12.1651   -6.4872 S.o2      1 <0>         2.6902
     18 O2          3.4445  -12.7729   -5.2030 O.2       1 <0>        -0.9417
     19 O3          3.4007  -10.7551   -6.6624 O.2       1 <0>        -0.9480
     20 N3          2.0774  -12.7542   -7.2615 N.pl3     1 <0>        -1.0576
     21 C14         1.8139  -12.3826   -8.5846 C.ar      1 <0>         0.1298
     22 C15         1.9312  -11.0535   -8.9694 C.ar      1 <0>        -0.1128
     23 C16         1.6714  -10.6876  -10.2755 C.ar      1 <0>        -0.1155
     24 C17         1.2934  -11.6473  -11.2029 C.ar      1 <0>         0.1034
     25 C18         1.1756  -12.9750  -10.8193 C.ar      1 <0>        -0.1839
     26 C19         1.4405  -13.3435   -9.5149 C.ar      1 <0>        -0.0868
     27 O4          1.0378  -11.2861  -12.4889 O.3       1 <0>        -0.3181
     28 C20         0.6533  -12.3259  -13.3905 C.3       1 <0>         0.0283
     29 C21         0.4095  -11.7323  -14.7795 C.3       1 <0>         0.0938
     30 C22        -0.6217  -10.6391  -14.6783 C.ar      1 <0>        -0.1168
     31 C23        -1.7196  -10.8402  -13.8540 C.ar      1 <0>        -0.0980
     32 C24        -2.6919   -9.8638  -13.7331 C.ar      1 <0>         0.0991
     33 C25        -2.5671   -8.6734  -14.4437 C.ar      1 <0>         0.1151
     34 C26        -1.4703   -8.4770  -15.2639 C.ar      1 <0>        -0.1191
     35 C27        -0.4979   -9.4587  -15.3801 C.ar      1 <0>        -0.0769
     36 C28         0.6847   -9.1992  -16.2786 C.3       1 <0>        -0.1065
     37 C29         1.4054  -10.5140  -16.5787 C.3       1 <0>        -0.0027
     38 N4          1.6707  -11.2044  -15.3075 N.4       1 <0>        -0.5048
     39 O5         -3.5188   -7.7083  -14.3326 O.3       1 <0>        -0.4819
     40 O6         -3.7652  -10.0658  -12.9227 O.3       1 <0>        -0.4811
     41 H1         13.2947  -20.4448  -14.9656 H         1 <0>         0.0532
     42 H2         14.2477  -20.7203  -13.4877 H         1 <0>         0.0543
     43 H3         13.4430  -22.0871  -14.2956 H         1 <0>         0.0554
     44 H4         11.2315  -21.1029  -13.7580 H         1 <0>         0.0610
     45 H5         12.1844  -21.3784  -12.2801 H         1 <0>         0.0624
     46 H6         12.8874  -19.0006  -12.2900 H         1 <0>         0.0631
     47 H7         11.9345  -18.7250  -13.7679 H         1 <0>         0.0614
     48 H8          9.8712  -19.3831  -12.5603 H         1 <0>         0.0658
     49 H9         10.8241  -19.6587  -11.0824 H         1 <0>         0.0678
     50 H10        11.5271  -17.2808  -11.0923 H         1 <0>         0.0715
     51 H11        10.5742  -17.0053  -12.5702 H         1 <0>         0.0692
     52 H12         8.5109  -17.6634  -11.3626 H         1 <0>         0.0694
     53 H13         9.4638  -17.9389   -9.8847 H         1 <0>         0.0718
     54 H14         9.9608  -15.3091  -10.7867 H         1 <0>         0.4000
     55 H15         8.8678  -13.5684   -9.6749 H         1 <0>         0.4124
     56 H16         6.9943  -11.8336   -9.7699 H         1 <0>         0.1356
     57 H17         5.0246  -11.0015   -8.5513 H         1 <0>         0.1442
     58 H18         4.8684  -14.6270   -6.3095 H         1 <0>         0.1439
     59 H19         6.8314  -15.4724   -7.5298 H         1 <0>         0.1531
     60 H20         1.4751  -13.3569   -6.7979 H         1 <0>         0.4307
     61 H21         2.2252  -10.3061   -8.2473 H         1 <0>         0.1695
     62 H22         1.7623   -9.6539  -10.5749 H         1 <0>         0.1399
     63 H23         0.8808  -13.7215  -11.5419 H         1 <0>         0.1321
     64 H24         1.3533  -14.3781   -9.2175 H         1 <0>         0.1379
     65 H25         1.4482  -13.0696  -13.4477 H         1 <0>         0.0938
     66 H26        -0.2611  -12.7983  -13.0317 H         1 <0>         0.1111
     67 H27         0.0405  -12.5133  -15.4443 H         1 <0>         0.1661
     68 H28        -1.8155  -11.7644  -13.3035 H         1 <0>         0.1412
     69 H29        -1.3713   -7.5546  -15.8169 H         1 <0>         0.1464
     70 H30         0.3399   -8.7538  -17.2118 H         1 <0>         0.1265
     71 H31         1.3725   -8.5138  -15.7834 H         1 <0>         0.1076
     72 H32         0.7758  -11.1405  -17.2105 H         1 <0>         0.1369
     73 H33         2.3475  -10.3073  -17.0866 H         1 <0>         0.1443
     74 H34         2.0677  -10.5538  -14.6463 H         1 <0>         0.4367
     75 H35        -3.3525   -7.0716  -13.6240 H         1 <0>         0.4008
     76 H36        -3.6327   -9.7669  -12.0127 H         1 <0>         0.3990
     77 H37         2.3156  -11.9645  -15.4642 H         1 <0>         0.4346
@<TRIPOS>BOND
     1    1    2 1
     2    1   41 1
     3    1   42 1
     4    1   43 1
     5    2    3 1
     6    2   44 1
     7    2   45 1
     8    3    4 1
     9    3   46 1
    10    3   47 1
    11    4    5 1
    12    4   48 1
    13    4   49 1
    14    5    6 1
    15    5   50 1
    16    5   51 1
    17    6    7 1
    18    6   52 1
    19    6   53 1
    20    7    8 am
    21    7   54 1
    22    8    9 2
    23    8   10 am
    24   10   11 1
    25   10   55 1
    26   11   16 ar
    27   11   12 ar
    28   12   13 ar
    29   12   56 1
    30   13   14 ar
    31   13   57 1
    32   14   15 ar
    33   14   17 1
    34   15   16 ar
    35   15   58 1
    36   16   59 1
    37   17   18 2
    38   17   19 2
    39   17   20 1
    40   20   21 1
    41   20   60 1
    42   21   26 ar
    43   21   22 ar
    44   22   23 ar
    45   22   61 1
    46   23   24 ar
    47   23   62 1
    48   24   25 ar
    49   24   27 1
    50   25   26 ar
    51   25   63 1
    52   26   64 1
    53   27   28 1
    54   28   29 1
    55   28   65 1
    56   28   66 1
    57   29   38 1
    58   29   30 1
    59   29   67 1
    60   30   35 ar
    61   30   31 ar
    62   31   32 ar
    63   31   68 1
    64   32   33 ar
    65   32   40 1
    66   33   34 ar
    67   33   39 1
    68   34   35 ar
    69   34   69 1
    70   35   36 1
    71   36   37 1
    72   36   70 1
    73   36   71 1
    74   37   38 1
    75   37   72 1
    76   37   73 1
    77   38   74 1
    78   38   77 1
    79   39   75 1
    80   40   76 1
@<TRIPOS>MOLECULE
CHEMBL243266
   57    59     0     0     0
SMALL
USER_CHARGES

@<TRIPOS>ATOM
      1 C1         -0.0187    1.5258    0.0104 C.3       1 <0>        -0.1845
      2 C2          0.0021   -0.0041    0.0020 C.3       1 <0>         0.0287
      3 C3          0.7421   -0.5109    1.2415 C.3       1 <0>        -0.0941
      4 C4          0.6567   -2.0144    1.2978 C.ar      1 <0>        -0.1652
      5 C5         -0.3968   -2.6218    1.9557 C.ar      1 <0>        -0.0619
      6 C6         -0.4771   -3.9998    2.0091 C.ar      1 <0>        -0.1340
      7 C7          0.5003   -4.7745    1.4014 C.ar      1 <0>         0.1521
      8 C8          1.5561   -4.1627    0.7414 C.ar      1 <0>        -0.1940
      9 C9          1.6291   -2.7842    0.6865 C.ar      1 <0>        -0.0941
     10 O1          0.4238   -6.1304    1.4528 O.3       1 <0>        -0.2987
     11 C10         1.4651   -6.8639    0.8051 C.3       1 <0>         0.1260
     12 C11         1.2138   -8.3411    0.9660 C.2       1 <0>         0.1553
     13 C12         1.6947   -9.1735    2.0666 C.2       1 <0>         0.0414
     14 N1          1.2784  -10.4021    1.8649 N.pl3     1 <0>         0.0033
     15 O2          1.5282  -11.5176    2.7006 O.3       1 <0>        -0.3622
     16 O3          0.5334  -10.4095    0.6595 O.3       1 <0>         0.0777
     17 N2          0.5290   -9.0867    0.1527 N.2       1 <0>        -0.2065
     18 C13         2.5100   -8.7117    3.2100 C.2       1 <0>         0.6017
     19 O4          2.8376   -7.5439    3.2905 O.2       1 <0>        -0.5045
     20 N3          2.8900   -9.5855    4.1631 N.am      1 <0>        -0.8125
     21 N4          0.6897   -0.4778   -1.2066 N.4       1 <0>        -0.5061
     22 C14        -0.0856   -0.0931   -2.3936 C.3       1 <0>        -0.0467
     23 C15         0.6305   -0.5866   -3.6524 C.3       1 <0>         0.1363
     24 C16        -0.0983   -0.0873   -4.8733 C.ar      1 <0>        -0.1061
     25 C17        -1.2415   -0.7319   -5.3057 C.ar      1 <0>        -0.1471
     26 C18        -1.9145   -0.2741   -6.4297 C.ar      1 <0>         0.1388
     27 C19        -1.4389    0.8308   -7.1188 C.ar      1 <0>        -0.1581
     28 C20        -0.2918    1.4758   -6.6829 C.ar      1 <0>         0.1382
     29 C21         0.3745    1.0176   -5.5551 C.ar      1 <0>        -0.1403
     30 O5          0.1771    2.5589   -7.3566 O.3       1 <0>        -0.4910
     31 O6         -3.0384   -0.9087   -6.8548 O.3       1 <0>        -0.4911
     32 O7          0.6499   -2.0154   -3.6603 O.3       1 <0>        -0.5445
     33 H1          1.0039    1.9031    0.0027 H         1 <0>         0.0846
     34 H2         -0.5459    1.8868   -0.8726 H         1 <0>         0.0820
     35 H3         -0.5289    1.8773    0.9072 H         1 <0>         0.1089
     36 H4         -1.0205   -0.3814    0.0098 H         1 <0>         0.1404
     37 H5          1.7879   -0.2080    1.1895 H         1 <0>         0.0981
     38 H6          0.2852   -0.0874    2.1360 H         1 <0>         0.1219
     39 H7         -1.1575   -2.0183    2.4286 H         1 <0>         0.1385
     40 H8         -1.2999   -4.4738    2.5237 H         1 <0>         0.1418
     41 H9          2.3183   -4.7635    0.2676 H         1 <0>         0.1394
     42 H10         2.4485   -2.3075    0.1691 H         1 <0>         0.1273
     43 H11         1.4820   -6.6116   -0.2551 H         1 <0>         0.1093
     44 H12         2.4242   -6.6074    1.2550 H         1 <0>         0.1279
     45 H13         2.6286  -10.5174    4.0989 H         1 <0>         0.4220
     46 H14         3.4250   -9.2825    4.9134 H         1 <0>         0.4228
     47 H15         1.6080   -0.0627   -1.2556 H         1 <0>         0.4255
     48 H16        -1.0777   -0.5415   -2.3406 H         1 <0>         0.1373
     49 H17        -0.1790    0.9922   -2.4305 H         1 <0>         0.1475
     50 H18         1.6531   -0.2093   -3.6601 H         1 <0>         0.1338
     51 H19        -1.6113   -1.5929   -4.7688 H         1 <0>         0.1321
     52 H20        -1.9611    1.1884   -7.9940 H         1 <0>         0.1450
     53 H21         1.2657    1.5223   -5.2126 H         1 <0>         0.1381
     54 H22        -0.1782    3.4016   -7.0424 H         1 <0>         0.4004
     55 H23        -3.8550   -0.5637   -6.4684 H         1 <0>         0.4000
     56 H24        -0.2280   -2.4207   -3.6540 H         1 <0>         0.3894
     57 H25         0.7761   -1.4825   -1.1724 H         1 <0>         0.4300
@<TRIPOS>BOND
     1    1    2 1
     2    1   33 1
     3    1   34 1
     4    1   35 1
     5    2    3 1
     6    2   21 1
     7    2   36 1
     8    3    4 1
     9    3   37 1
    10    3   38 1
    11    4    9 ar
    12    4    5 ar
    13    5    6 ar
    14    5   39 1
    15    6    7 ar
    16    6   40 1
    17    7    8 ar
    18    7   10 1
    19    8    9 ar
    20    8   41 1
    21    9   42 1
    22   10   11 1
    23   11   12 1
    24   11   43 1
    25   11   44 1
    26   12   17 2
    27   12   13 1
    28   13   14 2
    29   13   18 1
    30   14   15 1
    31   14   16 1
    32   16   17 1
    33   18   19 2
    34   18   20 am
    35   20   45 1
    36   20   46 1
    37   21   22 1
    38   21   47 1
    39   21   57 1
    40   22   23 1
    41   22   48 1
    42   22   49 1
    43   23   24 1
    44   23   32 1
    45   23   50 1
    46   24   29 ar
    47   24   25 ar
    48   25   26 ar
    49   25   51 1
    50   26   27 ar
    51   26   31 1
    52   27   28 ar
    53   27   52 1
    54   28   29 ar
    55   28   30 1
    56   29   53 1
    57   30   54 1
    58   31   55 1
    59   32   56 1
@<TRIPOS>MOLECULE
CHEMBL243266
   57    59     0     0     0
SMALL
USER_CHARGES

@<TRIPOS>ATOM
      1 C1         -0.0187    1.5258    0.0104 C.3       1 <0>        -0.1847
      2 C2          0.0021   -0.0041    0.0020 C.3       1 <0>         0.0285
      3 C3          0.7421   -0.5109    1.2415 C.3       1 <0>        -0.0940
      4 C4          0.6567   -2.0144    1.2978 C.ar      1 <0>        -0.1637
      5 C5         -0.3968   -2.6218    1.9557 C.ar      1 <0>        -0.0612
      6 C6         -0.4771   -3.9998    2.0091 C.ar      1 <0>        -0.1332
      7 C7          0.5003   -4.7745    1.4014 C.ar      1 <0>         0.1516
      8 C8          1.5561   -4.1627    0.7414 C.ar      1 <0>        -0.1960
      9 C9          1.6291   -2.7842    0.6865 C.ar      1 <0>        -0.0966
     10 O1          0.4238   -6.1304    1.4528 O.3       1 <0>        -0.2985
     11 C10         1.4651   -6.8639    0.8051 C.3       1 <0>         0.1262
     12 C11         1.2138   -8.3411    0.9660 C.2       1 <0>         0.1553
     13 C12         1.6947   -9.1735    2.0666 C.2       1 <0>         0.0414
     14 N1          1.2784  -10.4021    1.8649 N.pl3     1 <0>         0.0033
     15 O2          1.5282  -11.5176    2.7006 O.3       1 <0>        -0.3619
     16 O3          0.5334  -10.4095    0.6595 O.3       1 <0>         0.0778
     17 N2          0.5290   -9.0867    0.1527 N.2       1 <0>        -0.2070
     18 C13         2.5100   -8.7117    3.2100 C.2       1 <0>         0.6016
     19 O4          2.8376   -7.5439    3.2905 O.2       1 <0>        -0.5045
     20 N3          2.8900   -9.5855    4.1631 N.am      1 <0>        -0.8124
     21 N4          0.6897   -0.4778   -1.2066 N.4       1 <0>        -0.5047
     22 C14        -0.0856   -0.0931   -2.3936 C.3       1 <0>        -0.0478
     23 C15         0.6305   -0.5866   -3.6524 C.3       1 <0>         0.1371
     24 C16        -0.1648   -0.1919   -4.8701 C.ar      1 <0>        -0.1062
     25 C17         0.0063    1.0598   -5.4298 C.ar      1 <0>        -0.1462
     26 C18        -0.7249    1.4255   -6.5511 C.ar      1 <0>         0.1388
     27 C19        -1.6276    0.5339   -7.1098 C.ar      1 <0>        -0.1579
     28 C20        -1.7974   -0.7214   -6.5464 C.ar      1 <0>         0.1381
     29 C21        -1.0597   -1.0844   -5.4284 C.ar      1 <0>        -0.1414
     30 O5         -2.6818   -1.5974   -7.0915 O.3       1 <0>        -0.4931
     31 O6         -0.5565    2.6569   -7.1008 O.3       1 <0>        -0.4935
     32 O7          1.9312    0.0013   -3.7219 O.3       1 <0>        -0.5461
     33 H1          1.0039    1.9031    0.0027 H         1 <0>         0.0843
     34 H2         -0.5459    1.8868   -0.8726 H         1 <0>         0.0821
     35 H3         -0.5289    1.8773    0.9072 H         1 <0>         0.1092
     36 H4         -1.0205   -0.3814    0.0098 H         1 <0>         0.1412
     37 H5          1.7879   -0.2080    1.1895 H         1 <0>         0.0982
     38 H6          0.2852   -0.0874    2.1360 H         1 <0>         0.1221
     39 H7         -1.1575   -2.0183    2.4286 H         1 <0>         0.1391
     40 H8         -1.2999   -4.4738    2.5237 H         1 <0>         0.1422
     41 H9          2.3183   -4.7635    0.2676 H         1 <0>         0.1392
     42 H10         2.4485   -2.3075    0.1691 H         1 <0>         0.1281
     43 H11         1.4820   -6.6116   -0.2551 H         1 <0>         0.1086
     44 H12         2.4242   -6.6074    1.2550 H         1 <0>         0.1280
     45 H13         2.6286  -10.5174    4.0989 H         1 <0>         0.4220
     46 H14         3.4250   -9.2825    4.9134 H         1 <0>         0.4229
     47 H15         1.6080   -0.0627   -1.2556 H         1 <0>         0.4282
     48 H16        -1.0777   -0.5415   -2.3406 H         1 <0>         0.1458
     49 H17        -0.1790    0.9922   -2.4305 H         1 <0>         0.1410
     50 H18         0.7239   -1.6719   -3.6155 H         1 <0>         0.1338
     51 H19         0.7094    1.7542   -4.9940 H         1 <0>         0.1327
     52 H20        -2.1978    0.8169   -7.9822 H         1 <0>         0.1448
     53 H21        -1.1885   -2.0638   -4.9918 H         1 <0>         0.1373
     54 H22        -2.2999   -2.1709   -7.7699 H         1 <0>         0.4025
     55 H23         0.1305    2.6937   -7.7804 H         1 <0>         0.4026
     56 H24         1.9246    0.9676   -3.7575 H         1 <0>         0.3892
     57 H25         0.7761   -1.4825   -1.1724 H         1 <0>         0.4259
@<TRIPOS>BOND
     1    1    2 1
     2    1   33 1
     3    1   34 1
     4    1   35 1
     5    2    3 1
     6    2   21 1
     7    2   36 1
     8    3    4 1
     9    3   37 1
    10    3   38 1
    11    4    9 ar
    12    4    5 ar
    13    5    6 ar
    14    5   39 1
    15    6    7 ar
    16    6   40 1
    17    7    8 ar
    18    7   10 1
    19    8    9 ar
    20    8   41 1
    21    9   42 1
    22   10   11 1
    23   11   12 1
    24   11   43 1
    25   11   44 1
    26   12   17 2
    27   12   13 1
    28   13   14 2
    29   13   18 1
    30   14   15 1
    31   14   16 1
    32   16   17 1
    33   18   19 2
    34   18   20 am
    35   20   45 1
    36   20   46 1
    37   21   22 1
    38   21   47 1
    39   21   57 1
    40   22   23 1
    41   22   48 1
    42   22   49 1
    43   23   24 1
    44   23   32 1
    45   23   50 1
    46   24   29 ar
    47   24   25 ar
    48   25   26 ar
    49   25   51 1
    50   26   27 ar
    51   26   31 1
    52   27   28 ar
    53   27   52 1
    54   28   29 ar
    55   28   30 1
    56   29   53 1
    57   30   54 1
    58   31   55 1
    59   32   56 1
@<TRIPOS>MOLECULE
CHEMBL243266
   57    59     0     0     0
SMALL
USER_CHARGES

@<TRIPOS>ATOM
      1 C1         -0.0187    1.5258    0.0104 C.3       1 <0>        -0.1844
      2 C2          0.0021   -0.0041    0.0020 C.3       1 <0>         0.0290
      3 C3          0.7182   -0.4975   -1.2568 C.3       1 <0>        -0.0943
      4 C4          0.6316   -2.0003   -1.3275 C.ar      1 <0>        -0.1646
      5 C5          1.6125   -2.7766   -0.7383 C.ar      1 <0>        -0.0988
      6 C6          1.5356   -4.1544   -0.8021 C.ar      1 <0>        -0.1344
      7 C7          0.4730   -4.7591   -1.4577 C.ar      1 <0>         0.1517
      8 C8         -0.5101   -3.9780   -2.0477 C.ar      1 <0>        -0.1945
      9 C9         -0.4314   -2.6006   -1.9766 C.ar      1 <0>        -0.0590
     10 O1          0.3954   -6.1144   -1.5223 O.3       1 <0>        -0.2991
     11 C10        -0.7264   -6.6678   -2.2132 C.3       1 <0>         0.1258
     12 C11        -0.6434   -8.1722   -2.1818 C.2       1 <0>         0.1556
     13 C12         0.0261   -9.0107   -3.1738 C.2       1 <0>         0.0415
     14 N1         -0.1116  -10.2651   -2.8118 N.pl3     1 <0>         0.0033
     15 O2          0.3918  -11.3947   -3.5015 O.3       1 <0>        -0.3621
     16 O3         -0.8548  -10.2836   -1.6054 O.3       1 <0>         0.0777
     17 N2         -1.1501   -8.9405   -1.2657 N.2       1 <0>        -0.2069
     18 C13         0.7357   -8.5294   -4.3780 C.2       1 <0>         0.6015
     19 O4          0.7978   -7.3381   -4.6114 O.2       1 <0>        -0.5042
     20 N3          1.3139   -9.4115   -5.2171 N.am      1 <0>        -0.8125
     21 N4          0.7126   -0.4907    1.1921 N.4       1 <0>        -0.5060
     22 C14        -0.0398   -0.1189    2.3978 C.3       1 <0>        -0.0463
     23 C15         0.7001   -0.6257    3.6373 C.3       1 <0>         0.1361
     24 C16        -0.1305   -0.3530    4.8648 C.ar      1 <0>        -0.1059
     25 C17        -0.1415    0.9108    5.4234 C.ar      1 <0>        -0.1470
     26 C18        -0.9056    1.1645    6.5537 C.ar      1 <0>         0.1386
     27 C19        -1.6583    0.1486    7.1224 C.ar      1 <0>        -0.1581
     28 C20        -1.6456   -1.1185    6.5601 C.ar      1 <0>         0.1382
     29 C21        -0.8843   -1.3657    5.4264 C.ar      1 <0>        -0.1403
     30 O5         -2.3821   -2.1164    7.1156 O.3       1 <0>        -0.4910
     31 O6         -0.9156    2.4075    7.1029 O.3       1 <0>        -0.4909
     32 O7          1.9549    0.0485    3.7518 O.3       1 <0>        -0.5439
     33 H1          1.0039    1.9031    0.0027 H         1 <0>         0.0848
     34 H2         -0.5459    1.8868   -0.8726 H         1 <0>         0.1088
     35 H3         -0.5289    1.8773    0.9072 H         1 <0>         0.0813
     36 H4         -1.0205   -0.3814    0.0098 H         1 <0>         0.1404
     37 H5          0.2444   -0.0644   -2.1377 H         1 <0>         0.1216
     38 H6          1.7648   -0.1951   -1.2215 H         1 <0>         0.0987
     39 H7          2.4395   -2.3054   -0.2281 H         1 <0>         0.1315
     40 H8          2.3024   -4.7604   -0.3424 H         1 <0>         0.1421
     41 H9         -1.3383   -4.4464   -2.5587 H         1 <0>         0.1395
     42 H10        -1.1987   -1.9921   -2.4319 H         1 <0>         0.1354
     43 H11        -1.6474   -6.3445   -1.7283 H         1 <0>         0.1097
     44 H12        -0.7209   -6.3251   -3.2480 H         1 <0>         0.1285
     45 H13         1.2644  -10.3621   -5.0309 H         1 <0>         0.4220
     46 H14         1.7795   -9.0956   -6.0073 H         1 <0>         0.4229
     47 H15         0.7982   -1.4950    1.1455 H         1 <0>         0.4265
     48 H16        -0.1324    0.9660    2.4481 H         1 <0>         0.1402
     49 H17        -1.0328   -0.5668    2.3589 H         1 <0>         0.1446
     50 H18         0.8710   -1.6983    3.5452 H         1 <0>         0.1329
     51 H19         0.4454    1.7017    4.9801 H         1 <0>         0.1326
     52 H20        -2.2533    0.3440    8.0023 H         1 <0>         0.1449
     53 H21        -0.8776   -2.3515    4.9854 H         1 <0>         0.1377
     54 H22        -3.2804   -2.1847    6.7641 H         1 <0>         0.4002
     55 H23        -1.6033    2.9881    6.7493 H         1 <0>         0.3997
     56 H24         1.8791    1.0087    3.8375 H         1 <0>         0.3894
     57 H25         1.6317   -0.0761    1.2281 H         1 <0>         0.4294
@<TRIPOS>BOND
     1    1    2 1
     2    1   33 1
     3    1   34 1
     4    1   35 1
     5    2    3 1
     6    2   21 1
     7    2   36 1
     8    3    4 1
     9    3   37 1
    10    3   38 1
    11    4    9 ar
    12    4    5 ar
    13    5    6 ar
    14    5   39 1
    15    6    7 ar
    16    6   40 1
    17    7    8 ar
    18    7   10 1
    19    8    9 ar
    20    8   41 1
    21    9   42 1
    22   10   11 1
    23   11   12 1
    24   11   43 1
    25   11   44 1
    26   12   17 2
    27   12   13 1
    28   13   14 2
    29   13   18 1
    30   14   15 1
    31   14   16 1
    32   16   17 1
    33   18   19 2
    34   18   20 am
    35   20   45 1
    36   20   46 1
    37   21   22 1
    38   21   47 1
    39   21   57 1
    40   22   23 1
    41   22   48 1
    42   22   49 1
    43   23   24 1
    44   23   32 1
    45   23   50 1
    46   24   29 ar
    47   24   25 ar
    48   25   26 ar
    49   25   51 1
    50   26   27 ar
    51   26   31 1
    52   27   28 ar
    53   27   52 1
    54   28   29 ar
    55   28   30 1
    56   29   53 1
    57   30   54 1
    58   31   55 1
    59   32   56 1
@<TRIPOS>MOLECULE
CHEMBL243266
   57    59     0     0     0
SMALL
USER_CHARGES

@<TRIPOS>ATOM
      1 C1         -0.0187    1.5258    0.0104 C.3       1 <0>        -0.1850
      2 C2          0.0021   -0.0041    0.0020 C.3       1 <0>         0.0288
      3 C3          0.7182   -0.4975   -1.2568 C.3       1 <0>        -0.0940
      4 C4          0.6316   -2.0003   -1.3275 C.ar      1 <0>        -0.1652
      5 C5          1.6125   -2.7766   -0.7383 C.ar      1 <0>        -0.0963
      6 C6          1.5356   -4.1544   -0.8021 C.ar      1 <0>        -0.1330
      7 C7          0.4730   -4.7591   -1.4577 C.ar      1 <0>         0.1514
      8 C8         -0.5101   -3.9780   -2.0477 C.ar      1 <0>        -0.1949
      9 C9         -0.4314   -2.6006   -1.9766 C.ar      1 <0>        -0.0593
     10 O1          0.3954   -6.1144   -1.5223 O.3       1 <0>        -0.2991
     11 C10        -0.7264   -6.6678   -2.2132 C.3       1 <0>         0.1257
     12 C11        -0.6434   -8.1722   -2.1818 C.2       1 <0>         0.1559
     13 C12         0.0261   -9.0107   -3.1738 C.2       1 <0>         0.0417
     14 N1         -0.1116  -10.2651   -2.8118 N.pl3     1 <0>         0.0032
     15 O2          0.3918  -11.3947   -3.5015 O.3       1 <0>        -0.3624
     16 O3         -0.8548  -10.2836   -1.6054 O.3       1 <0>         0.0775
     17 N2         -1.1501   -8.9405   -1.2657 N.2       1 <0>        -0.2069
     18 C13         0.7357   -8.5294   -4.3780 C.2       1 <0>         0.6014
     19 O4          0.7978   -7.3381   -4.6114 O.2       1 <0>        -0.5040
     20 N3          1.3139   -9.4115   -5.2171 N.am      1 <0>        -0.8126
     21 N4          0.7126   -0.4907    1.1921 N.4       1 <0>        -0.5053
     22 C14        -0.0398   -0.1189    2.3978 C.3       1 <0>        -0.0477
     23 C15         0.7001   -0.6257    3.6373 C.3       1 <0>         0.1365
     24 C16        -0.0717   -0.2443    4.8741 C.ar      1 <0>        -0.1059
     25 C17        -1.0971   -1.0537    5.3242 C.ar      1 <0>        -0.1463
     26 C18        -1.8094   -0.7046    6.4629 C.ar      1 <0>         0.1387
     27 C19        -1.4914    0.4573    7.1490 C.ar      1 <0>        -0.1580
     28 C20        -0.4622    1.2678    6.6954 C.ar      1 <0>         0.1379
     29 C21         0.2508    0.9115    5.5594 C.ar      1 <0>        -0.1412
     30 O5         -0.1485    2.4077    7.3655 O.3       1 <0>        -0.4932
     31 O6         -2.8180   -1.5009    6.9049 O.3       1 <0>        -0.4937
     32 O7          0.8214   -2.0480    3.5713 O.3       1 <0>        -0.5455
     33 H1          1.0039    1.9031    0.0027 H         1 <0>         0.0846
     34 H2         -0.5459    1.8868   -0.8726 H         1 <0>         0.1088
     35 H3         -0.5289    1.8773    0.9072 H         1 <0>         0.0827
     36 H4         -1.0205   -0.3814    0.0098 H         1 <0>         0.1400
     37 H5          0.2444   -0.0644   -2.1377 H         1 <0>         0.1216
     38 H6          1.7648   -0.1951   -1.2215 H         1 <0>         0.0984
     39 H7          2.4395   -2.3054   -0.2281 H         1 <0>         0.1307
     40 H8          2.3024   -4.7604   -0.3424 H         1 <0>         0.1418
     41 H9         -1.3383   -4.4464   -2.5587 H         1 <0>         0.1393
     42 H10        -1.1987   -1.9921   -2.4319 H         1 <0>         0.1352
     43 H11        -1.6474   -6.3445   -1.7283 H         1 <0>         0.1097
     44 H12        -0.7209   -6.3251   -3.2480 H         1 <0>         0.1284
     45 H13         1.2644  -10.3621   -5.0309 H         1 <0>         0.4219
     46 H14         1.7795   -9.0956   -6.0073 H         1 <0>         0.4228
     47 H15         0.7982   -1.4950    1.1455 H         1 <0>         0.4295
     48 H16        -0.1324    0.9660    2.4481 H         1 <0>         0.1484
     49 H17        -1.0328   -0.5668    2.3589 H         1 <0>         0.1376
     50 H18         1.6931   -0.1778    3.6761 H         1 <0>         0.1353
     51 H19        -1.3447   -1.9586    4.7892 H         1 <0>         0.1321
     52 H20        -2.0448    0.7309    8.0352 H         1 <0>         0.1447
     53 H21         1.0556    1.5402    5.2081 H         1 <0>         0.1379
     54 H22         0.5165    2.2870    8.0571 H         1 <0>         0.4026
     55 H23        -2.5359   -2.1825    7.5302 H         1 <0>         0.4025
     56 H24        -0.0252   -2.5137    3.5341 H         1 <0>         0.3888
     57 H25         1.6317   -0.0761    1.2281 H         1 <0>         0.4255
@<TRIPOS>BOND
     1    1    2 1
     2    1   33 1
     3    1   34 1
     4    1   35 1
     5    2    3 1
     6    2   21 1
     7    2   36 1
     8    3    4 1
     9    3   37 1
    10    3   38 1
    11    4    9 ar
    12    4    5 ar
    13    5    6 ar
    14    5   39 1
    15    6    7 ar
    16    6   40 1
    17    7    8 ar
    18    7   10 1
    19    8    9 ar
    20    8   41 1
    21    9   42 1
    22   10   11 1
    23   11   12 1
    24   11   43 1
    25   11   44 1
    26   12   17 2
    27   12   13 1
    28   13   14 2
    29   13   18 1
    30   14   15 1
    31   14   16 1
    32   16   17 1
    33   18   19 2
    34   18   20 am
    35   20   45 1
    36   20   46 1
    37   21   22 1
    38   21   47 1
    39   21   57 1
    40   22   23 1
    41   22   48 1
    42   22   49 1
    43   23   24 1
    44   23   32 1
    45   23   50 1
    46   24   29 ar
    47   24   25 ar
    48   25   26 ar
    49   25   51 1
    50   26   27 ar
    51   26   31 1
    52   27   28 ar
    53   27   52 1
    54   28   29 ar
    55   28   30 1
    56   29   53 1
    57   30   54 1
    58   31   55 1
    59   32   56 1
@<TRIPOS>MOLECULE
CHEMBL570834
   89    92     0     0     0
SMALL
USER_CHARGES

@<TRIPOS>ATOM
      1 C1          0.2046    1.3116    0.2089 C.3       1 <0>        -0.1800
      2 C2          0.0398   -0.2053    0.0964 C.3       1 <0>         0.0601
      3 C3          0.6507   -0.8774    1.3276 C.3       1 <0>        -0.1806
      4 C4         -1.4480   -0.5518    0.0117 C.3       1 <0>        -0.0888
      5 C5         -2.1495   -0.0610    1.2519 C.ar      1 <0>        -0.1156
      6 C6         -2.2516   -0.8842    2.3583 C.ar      1 <0>        -0.0873
      7 C7         -2.8939   -0.4374    3.4964 C.ar      1 <0>        -0.1186
      8 C8         -3.4370    0.8403    3.5291 C.ar      1 <0>         0.1628
      9 C9         -3.3323    1.6648    2.4165 C.ar      1 <0>        -0.1427
     10 C10        -2.6846    1.2137    1.2831 C.ar      1 <0>        -0.0866
     11 N1         -4.0887    1.2959    4.6804 N.am      1 <0>        -0.6778
     12 C11        -3.6700    0.8921    5.8962 C.2       1 <0>         0.5177
     13 O1         -2.6712    0.2115    5.9984 O.2       1 <0>        -0.5169
     14 C12        -4.4427    1.2860    7.1285 C.3       1 <0>        -0.1390
     15 C13        -3.7597    0.7026    8.3670 C.3       1 <0>        -0.1181
     16 C14        -4.5443    1.1026    9.6182 C.3       1 <0>         0.1185
     17 N2         -3.8903    0.5439   10.8041 N.am      1 <0>        -0.7275
     18 C15        -4.4085    0.7679   12.0279 C.2       1 <0>         0.5139
     19 O2         -5.4163    1.4320   12.1474 O.2       1 <0>        -0.5232
     20 C16        -3.7358    0.1932   13.2478 C.3       1 <0>         0.0344
     21 N3         -4.4891    0.5772   14.4491 N.3       1 <0>        -0.5233
     22 C17        -4.4227    2.0286   14.6708 C.3       1 <0>         0.0194
     23 C18        -5.2667    2.3939   15.8939 C.3       1 <0>         0.0001
     24 N4         -4.7585    1.6777   17.0712 N.4       1 <0>        -0.3891
     25 C19        -4.8541    0.2296   16.8445 C.3       1 <0>        -0.0016
     26 C20        -4.0067   -0.1537   15.6294 C.3       1 <0>         0.0259
     27 C21        -5.5577    2.0425   18.2486 C.3       1 <0>        -0.0461
     28 N5          0.7236   -0.6837   -1.1126 N.4       1 <0>        -0.4993
     29 C22         2.1521   -0.3510   -1.0313 C.3       1 <0>        -0.0493
     30 C23         2.8643   -0.8494   -2.2904 C.3       1 <0>         0.1462
     31 C24         4.3472   -0.6185   -2.1534 C.ar      1 <0>        -0.1375
     32 C25         4.9202    0.5270   -2.6760 C.ar      1 <0>        -0.0815
     33 C26         6.2796    0.7450   -2.5535 C.ar      1 <0>        -0.1243
     34 C27         7.0786   -0.1854   -1.9043 C.ar      1 <0>         0.1253
     35 C28         6.5066   -1.3366   -1.3784 C.ar      1 <0>         0.0771
     36 C29         5.1357   -1.5501   -1.4995 C.ar      1 <0>         0.1045
     37 O3          4.5862   -2.6794   -0.9778 O.3       1 <0>        -0.3073
     38 C30         5.4009   -3.8545   -0.9863 C.3       1 <0>         0.0501
     39 C31         6.7818   -3.5172   -0.4842 C.2       1 <0>         0.4882
     40 O4          7.4314   -4.3473    0.1162 O.2       1 <0>        -0.4899
     41 N6          7.2946   -2.2920   -0.7164 N.am      1 <0>        -0.6550
     42 O5          8.4160    0.0289   -1.7838 O.3       1 <0>        -0.4844
     43 O6          2.3744   -0.1370   -3.4282 O.3       1 <0>        -0.5441
     44 H1          1.2645    1.5585    0.2692 H         1 <0>         0.0809
     45 H2         -0.2307    1.7905   -0.6683 H         1 <0>         0.0835
     46 H3         -0.3028    1.6667    1.1059 H         1 <0>         0.1086
     47 H4          0.1434   -0.5224    2.2246 H         1 <0>         0.1088
     48 H5          0.5334   -1.9581    1.2474 H         1 <0>         0.0835
     49 H6          1.7107   -0.6305    1.3879 H         1 <0>         0.0814
     50 H7         -1.8832   -0.0730   -0.8655 H         1 <0>         0.0976
     51 H8         -1.5654   -1.6325   -0.0685 H         1 <0>         0.0972
     52 H9         -1.8290   -1.8777    2.3322 H         1 <0>         0.1286
     53 H10        -2.9739   -1.0810    4.3599 H         1 <0>         0.1386
     54 H11        -3.7540    2.6588    2.4386 H         1 <0>         0.1323
     55 H12        -2.5993    1.8559    0.4189 H         1 <0>         0.1302
     56 H13        -4.8418    1.9024    4.6036 H         1 <0>         0.4169
     57 H14        -4.4714    2.3728    7.2074 H         1 <0>         0.1045
     58 H15        -5.4597    0.8999    7.0586 H         1 <0>         0.1065
     59 H16        -3.7311   -0.3842    8.2881 H         1 <0>         0.0811
     60 H17        -2.7428    1.0887    8.4370 H         1 <0>         0.0800
     61 H18        -4.5729    2.1893    9.6971 H         1 <0>         0.0726
     62 H19        -5.5612    0.7165    9.5482 H         1 <0>         0.0744
     63 H20        -3.0843    0.0127   10.7085 H         1 <0>         0.4047
     64 H21        -3.7072   -0.8936   13.1689 H         1 <0>         0.1190
     65 H22        -2.7189    0.5793   13.3177 H         1 <0>         0.0774
     66 H23        -3.3874    2.3234   14.8422 H         1 <0>         0.0568
     67 H24        -4.8088    2.5485   13.7940 H         1 <0>         0.1384
     68 H25        -5.2073    3.4682   16.0685 H         1 <0>         0.1363
     69 H26        -6.3044    2.1115   15.7167 H         1 <0>         0.1397
     70 H27        -4.4889   -0.3007   17.7240 H         1 <0>         0.1382
     71 H28        -5.8940   -0.0418   16.6625 H         1 <0>         0.1390
     72 H29        -4.0893   -1.2260   15.4520 H         1 <0>         0.1253
     73 H30        -2.9645    0.1051   15.8165 H         1 <0>         0.0627
     74 H31        -6.5994    1.7702   18.0792 H         1 <0>         0.1238
     75 H32        -5.1807    1.5111   19.1225 H         1 <0>         0.1248
     76 H33        -5.4858    3.1169   18.4178 H         1 <0>         0.1248
     77 H34         0.6149   -1.6841   -1.1868 H         1 <0>         0.4281
     78 H35         2.2695    0.7297   -0.9511 H         1 <0>         0.1398
     79 H36         2.5873   -0.8298   -0.1541 H         1 <0>         0.1477
     80 H37         2.6728   -1.9147   -2.4186 H         1 <0>         0.1362
     81 H38         4.3027    1.2541   -3.1822 H         1 <0>         0.1429
     82 H39         6.7209    1.6410   -2.9643 H         1 <0>         0.1502
     83 H40         4.9544   -4.6102   -0.3400 H         1 <0>         0.1544
     84 H41         5.4690   -4.2415   -2.0030 H         1 <0>         0.1091
     85 H42         8.1913   -2.0709   -0.4198 H         1 <0>         0.4236
     86 H43         8.6668    0.5088   -0.9827 H         1 <0>         0.4010
     87 H44         2.5112    0.8191   -3.3825 H         1 <0>         0.3882
     88 H45         0.3207   -0.2405   -1.9245 H         1 <0>         0.4304
     89 H46        -3.7944    1.9304   17.2282 H         1 <0>         0.4217
@<TRIPOS>BOND
     1    1    2 1
     2    1   44 1
     3    1   45 1
     4    1   46 1
     5    2    3 1
     6    2    4 1
     7    2   28 1
     8    3   47 1
     9    3   48 1
    10    3   49 1
    11    4    5 1
    12    4   50 1
    13    4   51 1
    14    5   10 ar
    15    5    6 ar
    16    6    7 ar
    17    6   52 1
    18    7    8 ar
    19    7   53 1
    20    8    9 ar
    21    8   11 1
    22    9   10 ar
    23    9   54 1
    24   10   55 1
    25   11   12 am
    26   11   56 1
    27   12   13 2
    28   12   14 1
    29   14   15 1
    30   14   57 1
    31   14   58 1
    32   15   16 1
    33   15   59 1
    34   15   60 1
    35   16   17 1
    36   16   61 1
    37   16   62 1
    38   17   18 am
    39   17   63 1
    40   18   19 2
    41   18   20 1
    42   20   21 1
    43   20   64 1
    44   20   65 1
    45   21   26 1
    46   21   22 1
    47   22   23 1
    48   22   66 1
    49   22   67 1
    50   23   24 1
    51   23   68 1
    52   23   69 1
    53   24   25 1
    54   24   27 1
    55   24   89 1
    56   25   26 1
    57   25   70 1
    58   25   71 1
    59   26   72 1
    60   26   73 1
    61   27   74 1
    62   27   75 1
    63   27   76 1
    64   28   29 1
    65   28   77 1
    66   28   88 1
    67   29   30 1
    68   29   78 1
    69   29   79 1
    70   30   31 1
    71   30   43 1
    72   30   80 1
    73   31   36 ar
    74   31   32 ar
    75   32   33 ar
    76   32   81 1
    77   33   34 ar
    78   33   82 1
    79   34   35 ar
    80   34   42 1
    81   35   41 1
    82   35   36 ar
    83   36   37 1
    84   37   38 1
    85   38   39 1
    86   38   83 1
    87   38   84 1
    88   39   40 2
    89   39   41 am
    90   41   85 1
    91   42   86 1
    92   43   87 1
@<TRIPOS>MOLECULE
CHEMBL570834
   89    92     0     0     0
SMALL
USER_CHARGES

@<TRIPOS>ATOM
      1 C1          0.2046    1.3116    0.2089 C.3       1 <0>        -0.1807
      2 C2          0.0398   -0.2053    0.0964 C.3       1 <0>         0.0598
      3 C3          0.6507   -0.8774    1.3276 C.3       1 <0>        -0.1807
      4 C4         -1.4480   -0.5518    0.0117 C.3       1 <0>        -0.0887
      5 C5         -2.1495   -0.0610    1.2519 C.ar      1 <0>        -0.1158
      6 C6         -2.2516   -0.8842    2.3583 C.ar      1 <0>        -0.0874
      7 C7         -2.8939   -0.4374    3.4964 C.ar      1 <0>        -0.1186
      8 C8         -3.4370    0.8403    3.5291 C.ar      1 <0>         0.1630
      9 C9         -3.3323    1.6648    2.4165 C.ar      1 <0>        -0.1426
     10 C10        -2.6846    1.2137    1.2831 C.ar      1 <0>        -0.0865
     11 N1         -4.0887    1.2959    4.6804 N.am      1 <0>        -0.6778
     12 C11        -3.6700    0.8921    5.8962 C.2       1 <0>         0.5179
     13 O1         -2.6712    0.2115    5.9984 O.2       1 <0>        -0.5171
     14 C12        -4.4427    1.2860    7.1285 C.3       1 <0>        -0.1392
     15 C13        -3.7597    0.7026    8.3670 C.3       1 <0>        -0.1180
     16 C14        -4.5443    1.1026    9.6182 C.3       1 <0>         0.1184
     17 N2         -3.8903    0.5439   10.8041 N.am      1 <0>        -0.7275
     18 C15        -4.4085    0.7679   12.0279 C.2       1 <0>         0.5138
     19 O2         -5.4163    1.4320   12.1474 O.2       1 <0>        -0.5231
     20 C16        -3.7358    0.1932   13.2478 C.3       1 <0>         0.0345
     21 N3         -4.4891    0.5772   14.4491 N.3       1 <0>        -0.5234
     22 C17        -4.4227    2.0286   14.6708 C.3       1 <0>         0.0194
     23 C18        -5.2667    2.3939   15.8939 C.3       1 <0>         0.0000
     24 N4         -4.7585    1.6777   17.0712 N.4       1 <0>        -0.3891
     25 C19        -4.8541    0.2296   16.8445 C.3       1 <0>        -0.0016
     26 C20        -4.0067   -0.1537   15.6294 C.3       1 <0>         0.0259
     27 C21        -5.5577    2.0425   18.2486 C.3       1 <0>        -0.0461
     28 N5          0.7236   -0.6837   -1.1126 N.4       1 <0>        -0.4988
     29 C22         2.1521   -0.3510   -1.0313 C.3       1 <0>        -0.0494
     30 C23         2.8643   -0.8494   -2.2904 C.3       1 <0>         0.1455
     31 C24         4.3297   -0.5080   -2.2070 C.ar      1 <0>        -0.1390
     32 C25         5.2321   -1.4432   -1.7329 C.ar      1 <0>        -0.0813
     33 C26         6.5776   -1.1366   -1.6542 C.ar      1 <0>        -0.1248
     34 C27         7.0317    0.1130   -2.0512 C.ar      1 <0>         0.1260
     35 C28         6.1285    1.0544   -2.5278 C.ar      1 <0>         0.0765
     36 C29         4.7743    0.7398   -2.6102 C.ar      1 <0>         0.1066
     37 O3          3.8996    1.6684   -3.0815 O.3       1 <0>        -0.3039
     38 C30         4.2033    3.0377   -2.8035 C.3       1 <0>         0.0502
     39 C31         5.6555    3.3063   -3.1068 C.2       1 <0>         0.4873
     40 O4          6.0048    4.4021   -3.4923 O.2       1 <0>        -0.4889
     41 N6          6.5645    2.3252   -2.9362 N.am      1 <0>        -0.6544
     42 O5          8.3553    0.4147   -1.9737 O.3       1 <0>        -0.4866
     43 O6          2.7104   -2.2661   -2.3955 O.3       1 <0>        -0.5442
     44 H1          1.2645    1.5585    0.2692 H         1 <0>         0.0805
     45 H2         -0.2307    1.7905   -0.6683 H         1 <0>         0.0842
     46 H3         -0.3028    1.6667    1.1059 H         1 <0>         0.1089
     47 H4          0.1434   -0.5224    2.2246 H         1 <0>         0.1095
     48 H5          0.5334   -1.9581    1.2474 H         1 <0>         0.0833
     49 H6          1.7107   -0.6305    1.3879 H         1 <0>         0.0809
     50 H7         -1.8832   -0.0730   -0.8655 H         1 <0>         0.0977
     51 H8         -1.5654   -1.6325   -0.0685 H         1 <0>         0.0974
     52 H9         -1.8290   -1.8777    2.3322 H         1 <0>         0.1286
     53 H10        -2.9739   -1.0810    4.3599 H         1 <0>         0.1387
     54 H11        -3.7540    2.6588    2.4386 H         1 <0>         0.1324
     55 H12        -2.5993    1.8559    0.4189 H         1 <0>         0.1302
     56 H13        -4.8418    1.9024    4.6036 H         1 <0>         0.4169
     57 H14        -4.4714    2.3728    7.2074 H         1 <0>         0.1045
     58 H15        -5.4597    0.8999    7.0586 H         1 <0>         0.1066
     59 H16        -3.7311   -0.3842    8.2881 H         1 <0>         0.0811
     60 H17        -2.7428    1.0887    8.4370 H         1 <0>         0.0800
     61 H18        -4.5729    2.1893    9.6971 H         1 <0>         0.0726
     62 H19        -5.5612    0.7165    9.5482 H         1 <0>         0.0744
     63 H20        -3.0843    0.0127   10.7085 H         1 <0>         0.4047
     64 H21        -3.7072   -0.8936   13.1689 H         1 <0>         0.1190
     65 H22        -2.7189    0.5793   13.3177 H         1 <0>         0.0774
     66 H23        -3.3874    2.3234   14.8422 H         1 <0>         0.0568
     67 H24        -4.8088    2.5485   13.7940 H         1 <0>         0.1384
     68 H25        -5.2073    3.4682   16.0685 H         1 <0>         0.1363
     69 H26        -6.3044    2.1115   15.7167 H         1 <0>         0.1397
     70 H27        -4.4889   -0.3007   17.7240 H         1 <0>         0.1382
     71 H28        -5.8940   -0.0418   16.6625 H         1 <0>         0.1390
     72 H29        -4.0893   -1.2260   15.4520 H         1 <0>         0.1253
     73 H30        -2.9645    0.1051   15.8165 H         1 <0>         0.0627
     74 H31        -6.5994    1.7702   18.0792 H         1 <0>         0.1238
     75 H32        -5.1807    1.5111   19.1225 H         1 <0>         0.1248
     76 H33        -5.4858    3.1169   18.4178 H         1 <0>         0.1248
     77 H34         0.6149   -1.6841   -1.1868 H         1 <0>         0.4305
     78 H35         2.2695    0.7297   -0.9511 H         1 <0>         0.1450
     79 H36         2.5873   -0.8298   -0.1541 H         1 <0>         0.1402
     80 H37         2.4290   -0.3705   -3.1676 H         1 <0>         0.1390
     81 H38         4.8837   -2.4172   -1.4225 H         1 <0>         0.1426
     82 H39         7.2768   -1.8710   -1.2825 H         1 <0>         0.1499
     83 H40         3.5783    3.6810   -3.4229 H         1 <0>         0.1545
     84 H41         4.0078    3.2465   -1.7517 H         1 <0>         0.1036
     85 H42         7.5050    2.4927   -3.1047 H         1 <0>         0.4244
     86 H43         8.8554    0.1984   -2.7726 H         1 <0>         0.4035
     87 H44         3.0758   -2.7580   -1.6474 H         1 <0>         0.3875
     88 H45         0.3207   -0.2405   -1.9245 H         1 <0>         0.4286
     89 H46        -3.7944    1.9304   17.2282 H         1 <0>         0.4217
@<TRIPOS>BOND
     1    1    2 1
     2    1   44 1
     3    1   45 1
     4    1   46 1
     5    2    3 1
     6    2    4 1
     7    2   28 1
     8    3   47 1
     9    3   48 1
    10    3   49 1
    11    4    5 1
    12    4   50 1
    13    4   51 1
    14    5   10 ar
    15    5    6 ar
    16    6    7 ar
    17    6   52 1
    18    7    8 ar
    19    7   53 1
    20    8    9 ar
    21    8   11 1
    22    9   10 ar
    23    9   54 1
    24   10   55 1
    25   11   12 am
    26   11   56 1
    27   12   13 2
    28   12   14 1
    29   14   15 1
    30   14   57 1
    31   14   58 1
    32   15   16 1
    33   15   59 1
    34   15   60 1
    35   16   17 1
    36   16   61 1
    37   16   62 1
    38   17   18 am
    39   17   63 1
    40   18   19 2
    41   18   20 1
    42   20   21 1
    43   20   64 1
    44   20   65 1
    45   21   26 1
    46   21   22 1
    47   22   23 1
    48   22   66 1
    49   22   67 1
    50   23   24 1
    51   23   68 1
    52   23   69 1
    53   24   25 1
    54   24   27 1
    55   24   89 1
    56   25   26 1
    57   25   70 1
    58   25   71 1
    59   26   72 1
    60   26   73 1
    61   27   74 1
    62   27   75 1
    63   27   76 1
    64   28   29 1
    65   28   77 1
    66   28   88 1
    67   29   30 1
    68   29   78 1
    69   29   79 1
    70   30   31 1
    71   30   43 1
    72   30   80 1
    73   31   36 ar
    74   31   32 ar
    75   32   33 ar
    76   32   81 1
    77   33   34 ar
    78   33   82 1
    79   34   35 ar
    80   34   42 1
    81   35   41 1
    82   35   36 ar
    83   36   37 1
    84   37   38 1
    85   38   39 1
    86   38   83 1
    87   38   84 1
    88   39   40 2
    89   39   41 am
    90   41   85 1
    91   42   86 1
    92   43   87 1
@<TRIPOS>MOLECULE
CHEMBL323113
   82    84     0     0     0
SMALL
USER_CHARGES

@<TRIPOS>ATOM
      1 C1         -8.6886    3.1052    4.3642 C.3       1 <0>        -0.1550
      2 C2         -9.2494    1.6823    4.4064 C.3       1 <0>        -0.1264
      3 C3         -8.3412    0.7520    3.5997 C.3       1 <0>        -0.1211
      4 C4         -8.9021   -0.6709    3.6420 C.3       1 <0>        -0.1219
      5 C5         -7.9939   -1.6011    2.8353 C.3       1 <0>        -0.1191
      6 C6         -8.5547   -3.0240    2.8775 C.3       1 <0>        -0.1173
      7 C7         -7.6466   -3.9543    2.0709 C.3       1 <0>        -0.1318
      8 C8         -8.2074   -5.3772    2.1131 C.3       1 <0>         0.1343
      9 N1         -7.3378   -6.2680    1.3407 N.am      1 <0>        -0.7372
     10 C9         -7.6366   -7.5781    1.2372 C.2       1 <0>         0.7026
     11 O1         -8.6278   -8.0208    1.7848 O.2       1 <0>        -0.5655
     12 N2         -6.8366   -8.3976    0.5266 N.am      1 <0>        -0.6903
     13 C10        -7.0913   -9.7734    0.4994 C.ar      1 <0>         0.2292
     14 C11        -6.0363  -10.6757    0.4647 C.ar      1 <0>        -0.1714
     15 C12        -6.2909  -12.0329    0.4384 C.ar      1 <0>         0.0028
     16 C13        -7.5947  -12.4936    0.4466 C.ar      1 <0>        -0.6963
     17 C14        -8.6474  -11.5976    0.4806 C.ar      1 <0>         0.0055
     18 C15        -8.3994  -10.2393    0.5128 C.ar      1 <0>        -0.1396
     19 S1         -7.9153  -14.2258    0.4130 S.o2      1 <0>         2.6897
     20 O2         -9.1690  -14.3943   -0.2345 O.2       1 <0>        -0.9399
     21 O3         -6.7270  -14.8498   -0.0536 O.2       1 <0>        -0.9468
     22 N3         -8.1229  -14.7159    1.9811 N.pl3     1 <0>        -1.0599
     23 C16        -7.0696  -14.6072    2.8920 C.ar      1 <0>         0.1680
     24 C17        -5.7902  -15.0072    2.5276 C.ar      1 <0>        -0.1512
     25 C18        -4.7509  -14.8980    3.4306 C.ar      1 <0>        -0.0830
     26 C19        -4.9829  -14.3915    4.6962 C.ar      1 <0>        -0.1214
     27 C20        -6.2553  -13.9924    5.0622 C.ar      1 <0>        -0.0879
     28 C21        -7.2980  -14.0936    4.1623 C.ar      1 <0>        -0.1256
     29 C22        -3.8465  -14.2747    5.6792 C.3       1 <0>        -0.0990
     30 C23        -3.1824  -12.9044    5.5305 C.3       1 <0>        -0.0086
     31 N4         -2.0747  -12.7905    6.4887 N.4       1 <0>        -0.5056
     32 C24        -1.4371  -11.4748    6.3460 C.3       1 <0>        -0.0426
     33 C25        -0.2834  -11.3563    7.3439 C.3       1 <0>         0.1414
     34 H1          0.4495  -12.1385    7.1465 H         1 <0>         0.1343
     35 C26         0.3706  -10.0065    7.1975 C.ar      1 <0>        -0.2001
     36 C27         1.4870   -9.8512    6.3896 C.ar      1 <0>        -0.0548
     37 C28         2.0556   -8.5913    6.2849 C.ar      1 <0>        -0.1641
     38 C29         1.4948   -7.5391    6.9843 C.ar      1 <0>         0.1222
     39 N5          0.4329   -7.7238    7.7438 N.ar      1 <0>        -0.4748
     40 C30        -0.1378   -8.9069    7.8621 C.ar      1 <0>         0.1171
     41 O4         -0.7871  -11.4998    8.6735 O.3       1 <0>        -0.5457
     42 H2         -9.3355    3.7680    4.9388 H         1 <0>         0.0548
     43 H3         -7.6866    3.1137    4.7932 H         1 <0>         0.0531
     44 H4         -8.6440    3.4476    3.3303 H         1 <0>         0.0538
     45 H5         -9.2939    1.3399    5.4403 H         1 <0>         0.0603
     46 H6        -10.2513    1.6738    3.9773 H         1 <0>         0.0611
     47 H7         -8.2967    1.0945    2.5659 H         1 <0>         0.0613
     48 H8         -7.3393    0.7605    4.0288 H         1 <0>         0.0603
     49 H9         -8.9466   -1.0133    4.6758 H         1 <0>         0.0615
     50 H10        -9.9040   -0.6794    3.2129 H         1 <0>         0.0627
     51 H11        -7.9494   -1.2587    1.8014 H         1 <0>         0.0629
     52 H12        -6.9919   -1.5926    3.2644 H         1 <0>         0.0613
     53 H13        -8.5993   -3.3665    3.9114 H         1 <0>         0.0659
     54 H14        -9.5567   -3.0325    2.4485 H         1 <0>         0.0678
     55 H15        -7.6020   -3.6119    1.0370 H         1 <0>         0.0714
     56 H16        -6.6446   -3.9458    2.4999 H         1 <0>         0.0689
     57 H17        -8.2520   -5.7196    3.1470 H         1 <0>         0.0697
     58 H18        -9.2094   -5.3857    1.6841 H         1 <0>         0.0721
     59 H19        -6.5471   -5.9148    0.9038 H         1 <0>         0.3998
     60 H20        -6.0843   -8.0338    0.0340 H         1 <0>         0.4122
     61 H21        -5.0178  -10.3166    0.4579 H         1 <0>         0.1348
     62 H22        -5.4708  -12.7352    0.4111 H         1 <0>         0.1437
     63 H23        -9.6646  -11.9605    0.4866 H         1 <0>         0.1444
     64 H24        -9.2219   -9.5401    0.5443 H         1 <0>         0.1536
     65 H25        -8.9759  -15.0784    2.2671 H         1 <0>         0.4323
     66 H26        -5.6084  -15.4035    1.5395 H         1 <0>         0.1640
     67 H27        -3.7559  -15.2088    3.1479 H         1 <0>         0.1325
     68 H28        -6.4330  -13.5973    6.0515 H         1 <0>         0.1296
     69 H29        -8.2906  -13.7775    4.4472 H         1 <0>         0.1358
     70 H30        -4.2306  -14.3842    6.6933 H         1 <0>         0.0972
     71 H31        -3.1136  -15.0570    5.4818 H         1 <0>         0.0980
     72 H32        -2.7983  -12.7949    4.5164 H         1 <0>         0.1343
     73 H33        -3.9154  -12.1221    5.7279 H         1 <0>         0.1332
     74 H34        -2.4303  -12.8919    7.4275 H         1 <0>         0.4328
     75 H35        -1.0530  -11.3653    5.3318 H         1 <0>         0.1445
     76 H36        -2.1701  -10.6926    6.5433 H         1 <0>         0.1371
     77 H37         1.9038  -10.6920    5.8550 H         1 <0>         0.1413
     78 H38         2.9258   -8.4338    5.6651 H         1 <0>         0.1472
     79 H39         1.9318   -6.5544    6.9082 H         1 <0>         0.1670
     80 H40        -1.0098   -9.0185    8.4894 H         1 <0>         0.1528
     81 H41        -1.4457  -10.8355    8.9185 H         1 <0>         0.3899
     82 H42        -1.3963  -13.5147    6.3060 H         1 <0>         0.4301
@<TRIPOS>BOND
     1    1    2 1
     2    1   42 1
     3    1   43 1
     4    1   44 1
     5    2    3 1
     6    2   45 1
     7    2   46 1
     8    3    4 1
     9    3   47 1
    10    3   48 1
    11    4    5 1
    12    4   49 1
    13    4   50 1
    14    5    6 1
    15    5   51 1
    16    5   52 1
    17    6    7 1
    18    6   53 1
    19    6   54 1
    20    7    8 1
    21    7   55 1
    22    7   56 1
    23    8    9 1
    24    8   57 1
    25    8   58 1
    26    9   10 am
    27    9   59 1
    28   10   11 2
    29   10   12 am
    30   12   13 1
    31   12   60 1
    32   13   18 ar
    33   13   14 ar
    34   14   15 ar
    35   14   61 1
    36   15   16 ar
    37   15   62 1
    38   16   17 ar
    39   16   19 1
    40   17   18 ar
    41   17   63 1
    42   18   64 1
    43   19   20 2
    44   19   21 2
    45   19   22 1
    46   22   23 1
    47   22   65 1
    48   23   28 ar
    49   23   24 ar
    50   24   25 ar
    51   24   66 1
    52   25   26 ar
    53   25   67 1
    54   26   27 ar
    55   26   29 1
    56   27   28 ar
    57   27   68 1
    58   28   69 1
    59   29   30 1
    60   29   70 1
    61   29   71 1
    62   30   31 1
    63   30   72 1
    64   30   73 1
    65   31   32 1
    66   31   74 1
    67   31   82 1
    68   32   33 1
    69   32   75 1
    70   32   76 1
    71   33   34 1
    72   33   35 1
    73   33   41 1
    74   35   40 ar
    75   35   36 ar
    76   36   37 ar
    77   36   77 1
    78   37   38 ar
    79   37   78 1
    80   38   39 ar
    81   38   79 1
    82   39   40 ar
    83   40   80 1
    84   41   81 1
@<TRIPOS>MOLECULE
CHEMBL84190
   86    89     0     0     0
SMALL
USER_CHARGES

@<TRIPOS>ATOM
      1 C1         -4.5689  -12.9997    9.3121 C.3       1 <0>        -0.1553
      2 C2         -5.0195  -11.6228    8.8201 C.3       1 <0>        -0.1255
      3 C3         -5.1080  -11.6309    7.2926 C.3       1 <0>        -0.1221
      4 C4         -5.5586  -10.2540    6.8006 C.3       1 <0>        -0.1201
      5 C5         -5.6471  -10.2621    5.2732 C.3       1 <0>        -0.1199
      6 C6         -6.0977   -8.8853    4.7811 C.3       1 <0>        -0.1157
      7 C7         -6.1862   -8.8933    3.2537 C.3       1 <0>        -0.1394
      8 C8         -6.6368   -7.5165    2.7617 C.3       1 <0>         0.1495
      9 N1         -6.7215   -7.5242    1.2992 N.am      1 <0>        -0.6240
     10 C9         -5.6249   -7.1842    0.3803 C.3       1 <0>         0.0900
     11 C10        -6.2489   -7.3544   -1.0184 C.3       1 <0>         0.0816
     12 N2         -7.6309   -7.7723   -0.7391 N.am      1 <0>        -0.5732
     13 C11        -7.8085   -7.8477    0.5864 C.2       1 <0>         0.7015
     14 O1         -8.8622   -8.1762    1.0965 O.2       1 <0>        -0.5634
     15 C12        -8.6041   -8.0525   -1.7049 C.ar      1 <0>         0.2553
     16 C13        -9.8427   -8.5494   -1.3209 C.ar      1 <0>        -0.1800
     17 C14       -10.8012   -8.8245   -2.2764 C.ar      1 <0>         0.0138
     18 C15       -10.5287   -8.6057   -3.6143 C.ar      1 <0>        -0.7080
     19 C16        -9.2963   -8.1110   -4.0000 C.ar      1 <0>         0.0174
     20 C17        -8.3354   -7.8290   -3.0489 C.ar      1 <0>        -0.1822
     21 S1        -11.7541   -8.9585   -4.8303 S.o2      1 <0>         2.6897
     22 O2        -11.0580   -9.3006   -6.0210 O.2       1 <0>        -0.9421
     23 O3        -12.6931   -9.8325   -4.2189 O.2       1 <0>        -0.9465
     24 N3        -12.5569   -7.5439   -5.1412 N.pl3     1 <0>        -1.0606
     25 C18       -13.2580   -6.8996   -4.1193 C.ar      1 <0>         0.1674
     26 C19       -14.0904   -7.6286   -3.2794 C.ar      1 <0>        -0.1497
     27 C20       -14.7818   -6.9885   -2.2697 C.ar      1 <0>        -0.0820
     28 C21       -14.6465   -5.6235   -2.0945 C.ar      1 <0>        -0.1200
     29 C22       -13.8187   -4.8948   -2.9288 C.ar      1 <0>        -0.0885
     30 C23       -13.1200   -5.5295   -3.9369 C.ar      1 <0>        -0.1261
     31 C24       -15.4034   -4.9283   -0.9922 C.3       1 <0>        -0.0988
     32 C25       -14.5550   -4.9180    0.2810 C.3       1 <0>        -0.0091
     33 N4        -15.2927   -4.2403    1.3555 N.4       1 <0>        -0.5051
     34 C26       -14.4782   -4.2304    2.5779 C.3       1 <0>        -0.0432
     35 C27       -15.2466   -3.5247    3.6970 C.3       1 <0>         0.1417
     36 H1        -16.1802   -4.0543    3.8868 H         1 <0>         0.1343
     37 C28       -14.4110   -3.5145    4.9511 C.ar      1 <0>        -0.1998
     38 C29       -14.5724   -4.5028    5.9104 C.ar      1 <0>        -0.0543
     39 C30       -13.7820   -4.4533    7.0482 C.ar      1 <0>        -0.1637
     40 C31       -12.8657   -3.4278    7.1877 C.ar      1 <0>         0.1221
     41 N5        -12.7396   -2.5045    6.2549 N.ar      1 <0>        -0.4751
     42 C32       -13.4702   -2.5235    5.1570 C.ar      1 <0>         0.1170
     43 O4        -15.5326   -2.1808    3.3044 O.3       1 <0>        -0.5459
     44 H2         -4.5059  -12.9939   10.4003 H         1 <0>         0.0547
     45 H3         -5.2895  -13.7530    8.9939 H         1 <0>         0.0535
     46 H4         -3.5902  -13.2330    8.8927 H         1 <0>         0.0541
     47 H5         -5.9982  -11.3895    9.2395 H         1 <0>         0.0598
     48 H6         -4.2989  -10.8695    9.1383 H         1 <0>         0.0607
     49 H7         -4.1293  -11.8642    6.8732 H         1 <0>         0.0615
     50 H8         -5.8286  -12.3842    6.9744 H         1 <0>         0.0607
     51 H9         -6.5373  -10.0207    7.2200 H         1 <0>         0.0604
     52 H10        -4.8380   -9.5007    7.1188 H         1 <0>         0.0618
     53 H11        -4.6684  -10.4954    4.8538 H         1 <0>         0.0623
     54 H12        -6.3677  -11.0154    4.9550 H         1 <0>         0.0614
     55 H13        -7.0764   -8.6519    5.2005 H         1 <0>         0.0635
     56 H14        -5.3771   -8.1319    5.0994 H         1 <0>         0.0651
     57 H15        -5.2075   -9.1266    2.8343 H         1 <0>         0.0665
     58 H16        -6.9068   -9.6467    2.9355 H         1 <0>         0.0677
     59 H17        -7.6155   -7.2832    3.1811 H         1 <0>         0.0853
     60 H18        -5.9162   -6.7632    3.0799 H         1 <0>         0.0861
     61 H19        -5.3034   -6.1539    0.5330 H         1 <0>         0.0930
     62 H20        -4.7885   -7.8706    0.5123 H         1 <0>         0.0930
     63 H21        -6.2373   -6.4087   -1.5602 H         1 <0>         0.0974
     64 H22        -5.7224   -8.1254   -1.5810 H         1 <0>         0.0985
     65 H23       -10.0560   -8.7208   -0.2761 H         1 <0>         0.1669
     66 H24       -11.7646   -9.2112   -1.9784 H         1 <0>         0.1432
     67 H25        -9.0865   -7.9412   -5.0457 H         1 <0>         0.1456
     68 H26        -7.3745   -7.4388   -3.3504 H         1 <0>         0.1382
     69 H27       -12.5402   -7.1627   -6.0330 H         1 <0>         0.4316
     70 H28       -14.1970   -8.6946   -3.4161 H         1 <0>         0.1626
     71 H29       -15.4291   -7.5546   -1.6163 H         1 <0>         0.1329
     72 H30       -13.7153   -3.8289   -2.7893 H         1 <0>         0.1294
     73 H31       -12.4702   -4.9605   -4.5853 H         1 <0>         0.1351
     74 H32       -15.6215   -3.9032   -1.2918 H         1 <0>         0.0971
     75 H33       -16.3369   -5.4579   -0.8025 H         1 <0>         0.0981
     76 H34       -14.3368   -5.9431    0.5805 H         1 <0>         0.1353
     77 H35       -13.6214   -4.3884    0.0913 H         1 <0>         0.1330
     78 H36       -15.4947   -3.2915    1.0782 H         1 <0>         0.4321
     79 H37       -14.2600   -5.2555    2.8775 H         1 <0>         0.1453
     80 H38       -13.5446   -3.7008    2.3882 H         1 <0>         0.1371
     81 H39       -15.2970   -5.2920    5.7745 H         1 <0>         0.1413
     82 H40       -13.8812   -5.2062    7.8161 H         1 <0>         0.1472
     83 H41       -12.2462   -3.3821    8.0711 H         1 <0>         0.1668
     84 H42       -13.3350   -1.7530    4.4125 H         1 <0>         0.1525
     85 H43       -14.7463   -1.6494    3.1190 H         1 <0>         0.3895
     86 H44       -16.1570   -4.7306    1.5311 H         1 <0>         0.4300
@<TRIPOS>BOND
     1    1    2 1
     2    1   44 1
     3    1   45 1
     4    1   46 1
     5    2    3 1
     6    2   47 1
     7    2   48 1
     8    3    4 1
     9    3   49 1
    10    3   50 1
    11    4    5 1
    12    4   51 1
    13    4   52 1
    14    5    6 1
    15    5   53 1
    16    5   54 1
    17    6    7 1
    18    6   55 1
    19    6   56 1
    20    7    8 1
    21    7   57 1
    22    7   58 1
    23    8    9 1
    24    8   59 1
    25    8   60 1
    26    9   13 am
    27    9   10 1
    28   10   11 1
    29   10   61 1
    30   10   62 1
    31   11   12 1
    32   11   63 1
    33   11   64 1
    34   12   13 am
    35   12   15 1
    36   13   14 2
    37   15   20 ar
    38   15   16 ar
    39   16   17 ar
    40   16   65 1
    41   17   18 ar
    42   17   66 1
    43   18   19 ar
    44   18   21 1
    45   19   20 ar
    46   19   67 1
    47   20   68 1
    48   21   22 2
    49   21   23 2
    50   21   24 1
    51   24   25 1
    52   24   69 1
    53   25   30 ar
    54   25   26 ar
    55   26   27 ar
    56   26   70 1
    57   27   28 ar
    58   27   71 1
    59   28   29 ar
    60   28   31 1
    61   29   30 ar
    62   29   72 1
    63   30   73 1
    64   31   32 1
    65   31   74 1
    66   31   75 1
    67   32   33 1
    68   32   76 1
    69   32   77 1
    70   33   34 1
    71   33   78 1
    72   33   86 1
    73   34   35 1
    74   34   79 1
    75   34   80 1
    76   35   36 1
    77   35   37 1
    78   35   43 1
    79   37   42 ar
    80   37   38 ar
    81   38   39 ar
    82   38   81 1
    83   39   40 ar
    84   39   82 1
    85   40   41 ar
    86   40   83 1
    87   41   42 ar
    88   42   84 1
    89   43   85 1
@<TRIPOS>MOLECULE
CHEMBL84190
   85    88     0     0     0
SMALL
USER_CHARGES

@<TRIPOS>ATOM
      1 C1         -5.8184  -12.1718   -8.4990 C.3       1 <0>        -0.1543
      2 C2         -5.1279  -10.8175   -8.6721 C.3       1 <0>        -0.1258
      3 C3         -3.7543  -10.8556   -7.9993 C.3       1 <0>        -0.1216
      4 C4         -3.0638   -9.5013   -8.1725 C.3       1 <0>        -0.1205
      5 C5         -1.6902   -9.5395   -7.4997 C.3       1 <0>        -0.1193
      6 C6         -0.9997   -8.1851   -7.6729 C.3       1 <0>        -0.1163
      7 C7          0.3739   -8.2233   -7.0001 C.3       1 <0>        -0.1386
      8 C8          1.0644   -6.8690   -7.1732 C.3       1 <0>         0.1503
      9 N1          2.3797   -6.9055   -6.5290 N.am      1 <0>        -0.6294
     10 C9          2.6525   -6.5509   -5.1282 C.3       1 <0>         0.0937
     11 C10         4.1717   -6.7641   -4.9825 C.3       1 <0>         0.0843
     12 N2          4.5936   -7.2162   -6.3167 N.am      1 <0>        -0.5717
     13 C11         3.5238   -7.2727   -7.1209 C.2       1 <0>         0.6989
     14 O1          3.5863   -7.6220   -8.2838 O.2       1 <0>        -0.5589
     15 C12         5.9037   -7.5415   -6.6860 C.ar      1 <0>         0.2280
     16 C13         6.1618   -8.0648   -7.9461 C.ar      1 <0>        -0.1788
     17 C14         7.4559   -8.3843   -8.3077 C.ar      1 <0>         0.0067
     18 C15         8.4940   -8.1838   -7.4164 C.ar      1 <0>        -0.6464
     19 C16         8.2402   -7.6630   -6.1608 C.ar      1 <0>         0.0062
     20 C17         6.9490   -7.3364   -5.7951 C.ar      1 <0>        -0.1844
     21 S1         10.1434   -8.5934   -7.8813 S.o2      1 <0>         2.6131
     22 O2         10.8602   -8.8222   -6.6759 O.2       1 <0>        -1.0277
     23 O3         10.0452   -9.5722   -8.9067 O.2       1 <0>        -1.0285
     24 N3         10.8054   -7.2442   -8.5768 N.2       1 <0>        -1.0827
     25 C18        12.1203   -7.2745   -9.0470 C.ar      1 <0>         0.2971
     26 C19        12.8722   -8.4374   -8.9372 C.ar      1 <0>        -0.2654
     27 C20        14.1718   -8.4641   -9.4035 C.ar      1 <0>        -0.0475
     28 C21        14.7250   -7.3348   -9.9789 C.ar      1 <0>        -0.2383
     29 C22        13.9793   -6.1756  -10.0898 C.ar      1 <0>        -0.0636
     30 C23        12.6772   -6.1437   -9.6307 C.ar      1 <0>        -0.1819
     31 C24        16.1438   -7.3675  -10.4858 C.3       1 <0>        -0.0704
     32 C25        16.1518   -7.8065  -11.9514 C.3       1 <0>        -0.0113
     33 N4         17.5349   -7.8383  -12.4455 N.4       1 <0>        -0.5054
     34 C26        17.5426   -8.2599  -13.8527 C.3       1 <0>        -0.0426
     35 C27        18.9830   -8.2930  -14.3673 C.3       1 <0>         0.1404
     36 H1         19.5648   -8.9981  -13.7736 H         1 <0>         0.1328
     37 C28        18.9909   -8.7255  -15.8108 C.ar      1 <0>        -0.1951
     38 C29        19.1886  -10.0571  -16.1438 C.ar      1 <0>        -0.0553
     39 C30        19.1881  -10.4090  -17.4847 C.ar      1 <0>        -0.1653
     40 C31        18.9919   -9.4279  -18.4384 C.ar      1 <0>         0.1185
     41 N5         18.8074   -8.1711  -18.0851 N.ar      1 <0>        -0.4762
     42 C32        18.7956   -7.8011  -16.8192 C.ar      1 <0>         0.1168
     43 O4         19.5582   -6.9895  -14.2574 O.3       1 <0>        -0.5470
     44 H2         -5.2103  -12.9510   -8.9584 H         1 <0>         0.0534
     45 H3         -5.9398  -12.3845   -7.4368 H         1 <0>         0.0531
     46 H4         -6.7969  -12.1446   -8.9783 H         1 <0>         0.0532
     47 H5         -5.0064  -10.6047   -9.7342 H         1 <0>         0.0605
     48 H6         -5.7360  -10.0382   -8.2127 H         1 <0>         0.0601
     49 H7         -3.8757  -11.0684   -6.9372 H         1 <0>         0.0603
     50 H8         -3.1462  -11.6349   -8.4588 H         1 <0>         0.0609
     51 H9         -2.9424   -9.2885   -9.2346 H         1 <0>         0.0616
     52 H10        -3.6719   -8.7221   -7.7130 H         1 <0>         0.0608
     53 H11        -1.8116   -9.7522   -6.4376 H         1 <0>         0.0606
     54 H12        -1.0821  -10.3187   -7.9592 H         1 <0>         0.0619
     55 H13        -0.8783   -7.9724   -8.7350 H         1 <0>         0.0654
     56 H14        -1.6078   -7.4059   -7.2134 H         1 <0>         0.0635
     57 H15         0.2525   -8.4361   -5.9380 H         1 <0>         0.0637
     58 H16         0.9820   -9.0025   -7.4595 H         1 <0>         0.0683
     59 H17         1.1858   -6.6562   -8.2354 H         1 <0>         0.0866
     60 H18         0.4563   -6.0897   -6.7138 H         1 <0>         0.0824
     61 H19         2.3925   -5.5093   -4.9396 H         1 <0>         0.0883
     62 H20         2.1071   -7.2106   -4.4534 H         1 <0>         0.0869
     63 H21         4.6661   -5.8284   -4.7216 H         1 <0>         0.0939
     64 H22         4.3807   -7.5297   -4.2353 H         1 <0>         0.0931
     65 H23         5.3515   -8.2219   -8.6426 H         1 <0>         0.1622
     66 H24         7.6573   -8.7916   -9.2875 H         1 <0>         0.1398
     67 H25         9.0530   -7.5075   -5.4669 H         1 <0>         0.1409
     68 H26         6.7519   -6.9259   -4.8158 H         1 <0>         0.1296
     69 H27        12.4410   -9.3195   -8.4873 H         1 <0>         0.1014
     70 H28        14.7569   -9.3679   -9.3185 H         1 <0>         0.1010
     71 H29        14.4143   -5.2953  -10.5396 H         1 <0>         0.1039
     72 H30        12.0938   -5.2393   -9.7216 H         1 <0>         0.1164
     73 H31        16.5825   -6.3732  -10.4019 H         1 <0>         0.0803
     74 H32        16.7256   -8.0725   -9.8921 H         1 <0>         0.0791
     75 H33        15.7131   -8.8008  -12.0352 H         1 <0>         0.1304
     76 H34        15.5700   -7.1015  -12.5451 H         1 <0>         0.1307
     77 H35        17.9410   -6.9179  -12.3679 H         1 <0>         0.4291
     78 H36        17.1038   -9.2542  -13.9365 H         1 <0>         0.1429
     79 H37        16.9608   -7.5548  -14.4464 H         1 <0>         0.1361
     80 H38        19.3397  -10.8022  -15.3767 H         1 <0>         0.1412
     81 H39        19.3393  -11.4367  -17.7804 H         1 <0>         0.1455
     82 H40        18.9901   -9.6939  -19.4852 H         1 <0>         0.1651
     83 H41        18.6362   -6.7629  -16.5680 H         1 <0>         0.1538
     84 H42        19.0907   -6.3095  -14.7615 H         1 <0>         0.3893
     85 H43        18.0734   -8.4910  -11.8959 H         1 <0>         0.4262
@<TRIPOS>BOND
     1    1    2 1
     2    1   44 1
     3    1   45 1
     4    1   46 1
     5    2    3 1
     6    2   47 1
     7    2   48 1
     8    3    4 1
     9    3   49 1
    10    3   50 1
    11    4    5 1
    12    4   51 1
    13    4   52 1
    14    5    6 1
    15    5   53 1
    16    5   54 1
    17    6    7 1
    18    6   55 1
    19    6   56 1
    20    7    8 1
    21    7   57 1
    22    7   58 1
    23    8    9 1
    24    8   59 1
    25    8   60 1
    26    9   13 am
    27    9   10 1
    28   10   11 1
    29   10   61 1
    30   10   62 1
    31   11   12 1
    32   11   63 1
    33   11   64 1
    34   12   13 am
    35   12   15 1
    36   13   14 2
    37   15   20 ar
    38   15   16 ar
    39   16   17 ar
    40   16   65 1
    41   17   18 ar
    42   17   66 1
    43   18   19 ar
    44   18   21 1
    45   19   20 ar
    46   19   67 1
    47   20   68 1
    48   21   22 2
    49   21   23 2
    50   21   24 1
    51   24   25 1
    52   25   30 ar
    53   25   26 ar
    54   26   27 ar
    55   26   69 1
    56   27   28 ar
    57   27   70 1
    58   28   29 ar
    59   28   31 1
    60   29   30 ar
    61   29   71 1
    62   30   72 1
    63   31   32 1
    64   31   73 1
    65   31   74 1
    66   32   33 1
    67   32   75 1
    68   32   76 1
    69   33   34 1
    70   33   77 1
    71   33   85 1
    72   34   35 1
    73   34   78 1
    74   34   79 1
    75   35   36 1
    76   35   37 1
    77   35   43 1
    78   37   42 ar
    79   37   38 ar
    80   38   39 ar
    81   38   80 1
    82   39   40 ar
    83   39   81 1
    84   40   41 ar
    85   40   82 1
    86   41   42 ar
    87   42   83 1
    88   43   84 1
@<TRIPOS>MOLECULE
CHEMBL95966
   49    50     0     0     0
SMALL
USER_CHARGES

@<TRIPOS>ATOM
      1 C1         -0.0184    1.5028    0.0103 C.3       1 <0>        -0.1200
      2 C2          0.0021   -0.0041    0.0020 C.ar      1 <0>        -0.0426
      3 C3          0.0057   -0.6883   -1.1997 C.ar      1 <0>        -0.1532
      4 C4          0.0244   -2.0706   -1.2107 C.ar      1 <0>        -0.0756
      5 C5          0.0391   -2.7719   -0.0203 C.ar      1 <0>        -0.2163
      6 C6          0.0355   -2.0879    1.1864 C.ar      1 <0>         0.1261
      7 C7          0.0229   -0.7004    1.1947 C.ar      1 <0>        -0.1488
      8 O1          0.0500   -2.7755    2.3585 O.3       1 <0>        -0.3021
      9 C8          0.0686   -4.2018    2.2738 C.3       1 <0>         0.0306
     10 C9          0.0829   -4.7963    3.6835 C.3       1 <0>         0.0854
     11 C10         0.2284   -6.3168    3.5944 C.3       1 <0>        -0.0422
     12 N1          0.2421   -6.8876    4.9479 N.4       1 <0>        -0.5048
     13 C11         0.3819   -8.3474    4.8623 C.3       1 <0>         0.0687
     14 C12         0.3960   -8.9330    6.2508 C.ar      1 <0>        -0.2990
     15 C13         1.5946   -9.0837    6.9238 C.ar      1 <0>        -0.0503
     16 C14         1.6111   -9.6199    8.1963 C.ar      1 <0>        -0.1827
     17 C15         0.4219  -10.0081    8.8002 C.ar      1 <0>         0.3159
     18 C16        -0.7804   -9.8553    8.1214 C.ar      1 <0>        -0.2572
     19 C17        -0.7903   -9.3131    6.8512 C.ar      1 <0>        -0.0341
     20 N2          0.4350  -10.5512   10.0870 N.2       1 <0>        -1.0821
     21 S1         -0.9838  -11.0134   10.8052 S.o2      1 <0>         2.5330
     22 O2         -1.7253   -9.8099   10.9508 O.2       1 <0>        -1.0235
     23 O3         -1.4731  -12.0720    9.9933 O.2       1 <0>        -1.0219
     24 C18        -0.4971  -11.6482   12.4333 C.3       1 <0>        -0.6358
     25 O4         -1.1396   -4.4731    4.3492 O.3       1 <0>        -0.5427
     26 H1          1.0042    1.8801    0.0026 H         1 <0>         0.0767
     27 H2         -0.5455    1.8639   -0.8728 H         1 <0>         0.0720
     28 H3         -0.5286    1.8543    0.9071 H         1 <0>         0.0709
     29 H4         -0.0065   -0.1419   -2.1312 H         1 <0>         0.1268
     30 H5          0.0272   -2.6027   -2.1505 H         1 <0>         0.1274
     31 H6          0.0530   -3.8518   -0.0294 H         1 <0>         0.1244
     32 H7          0.0248   -0.1655    2.1329 H         1 <0>         0.1324
     33 H8         -0.8194   -4.5459    1.7434 H         1 <0>         0.0752
     34 H9          0.9604   -4.5222    1.7353 H         1 <0>         0.0806
     35 H10         0.9218   -4.3832    4.2435 H         1 <0>         0.1335
     36 H11        -0.6105   -6.7299    3.0343 H         1 <0>         0.1337
     37 H12         1.1608   -6.5634    3.0866 H         1 <0>         0.1412
     38 H13         1.0187   -6.5052    5.4663 H         1 <0>         0.4254
     39 H14        -0.4571   -8.7605    4.3022 H         1 <0>         0.1204
     40 H15         1.3143   -8.5940    4.3545 H         1 <0>         0.1221
     41 H16         2.5188   -8.7820    6.4535 H         1 <0>         0.1095
     42 H17         2.5476   -9.7377    8.7213 H         1 <0>         0.1213
     43 H18        -1.7067  -10.1564    8.5879 H         1 <0>         0.1111
     44 H19        -1.7251   -9.1900    6.3246 H         1 <0>         0.1065
     45 H20         0.0017  -10.8594   12.9965 H         1 <0>         0.1192
     46 H21        -1.3840  -11.9764   12.9752 H         1 <0>         0.1089
     47 H22         0.1835  -12.4901   12.3063 H         1 <0>         0.1194
     48 H23        -1.9300   -4.8098    3.9055 H         1 <0>         0.3880
     49 H24        -0.6210   -6.6593    5.4179 H         1 <0>         0.4287
@<TRIPOS>BOND
     1    1    2 1
     2    1   26 1
     3    1   27 1
     4    1   28 1
     5    2    7 ar
     6    2    3 ar
     7    3    4 ar
     8    3   29 1
     9    4    5 ar
    10    4   30 1
    11    5    6 ar
    12    5   31 1
    13    6    7 ar
    14    6    8 1
    15    7   32 1
    16    8    9 1
    17    9   10 1
    18    9   33 1
    19    9   34 1
    20   10   11 1
    21   10   25 1
    22   10   35 1
    23   11   12 1
    24   11   36 1
    25   11   37 1
    26   12   13 1
    27   12   38 1
    28   12   49 1
    29   13   14 1
    30   13   39 1
    31   13   40 1
    32   14   19 ar
    33   14   15 ar
    34   15   16 ar
    35   15   41 1
    36   16   17 ar
    37   16   42 1
    38   17   18 ar
    39   17   20 1
    40   18   19 ar
    41   18   43 1
    42   19   44 1
    43   20   21 1
    44   21   22 2
    45   21   23 2
    46   21   24 1
    47   24   45 1
    48   24   46 1
    49   24   47 1
    50   25   48 1
@<TRIPOS>MOLECULE
CHEMBL95966
   49    50     0     0     0
SMALL
USER_CHARGES

@<TRIPOS>ATOM
      1 C1         -0.0184    1.5028    0.0103 C.3       1 <0>        -0.1200
      2 C2          0.0021   -0.0041    0.0020 C.ar      1 <0>        -0.0426
      3 C3          0.0057   -0.6883   -1.1997 C.ar      1 <0>        -0.1531
      4 C4          0.0244   -2.0706   -1.2107 C.ar      1 <0>        -0.0756
      5 C5          0.0391   -2.7719   -0.0203 C.ar      1 <0>        -0.2163
      6 C6          0.0355   -2.0879    1.1864 C.ar      1 <0>         0.1261
      7 C7          0.0229   -0.7004    1.1947 C.ar      1 <0>        -0.1488
      8 O1          0.0500   -2.7755    2.3585 O.3       1 <0>        -0.3022
      9 C8          0.0686   -4.2018    2.2738 C.3       1 <0>         0.0307
     10 C9          0.0829   -4.7963    3.6835 C.3       1 <0>         0.0854
     11 C10        -0.0230   -6.3201    3.5955 C.3       1 <0>        -0.0418
     12 N1         -0.1298   -6.8825    4.9484 N.4       1 <0>        -0.5054
     13 C11        -0.2315   -8.3455    4.8639 C.3       1 <0>         0.0686
     14 C12        -0.3410   -8.9225    6.2518 C.ar      1 <0>        -0.2990
     15 C13         0.8030   -9.2676    6.9476 C.ar      1 <0>        -0.0498
     16 C14         0.7062   -9.7966    8.2197 C.ar      1 <0>        -0.1825
     17 C15        -0.5422   -9.9818    8.8000 C.ar      1 <0>         0.3159
     18 C16        -1.6894   -9.6340    8.0982 C.ar      1 <0>        -0.2573
     19 C17        -1.5851   -9.1002    6.8287 C.ar      1 <0>        -0.0347
     20 N2         -0.6437  -10.5169   10.0862 N.2       1 <0>        -1.0821
     21 S1         -2.1329  -10.7369   10.7763 S.o2      1 <0>         2.5331
     22 O2         -2.6682   -9.4272   10.9088 O.2       1 <0>        -1.0237
     23 O3         -2.7746  -11.7019    9.9540 O.2       1 <0>        -1.0219
     24 C18        -1.7891  -11.4399   12.4128 C.3       1 <0>        -0.6358
     25 O4          1.3023   -4.4406    4.3381 O.3       1 <0>        -0.5421
     26 H1          1.0042    1.8801    0.0026 H         1 <0>         0.0767
     27 H2         -0.5455    1.8639   -0.8728 H         1 <0>         0.0720
     28 H3         -0.5286    1.8543    0.9071 H         1 <0>         0.0709
     29 H4         -0.0065   -0.1419   -2.1312 H         1 <0>         0.1268
     30 H5          0.0272   -2.6027   -2.1505 H         1 <0>         0.1274
     31 H6          0.0530   -3.8518   -0.0294 H         1 <0>         0.1244
     32 H7          0.0248   -0.1655    2.1329 H         1 <0>         0.1324
     33 H8         -0.8194   -4.5459    1.7434 H         1 <0>         0.0804
     34 H9          0.9604   -4.5222    1.7353 H         1 <0>         0.0754
     35 H10        -0.7616   -4.4056    4.2512 H         1 <0>         0.1330
     36 H11        -0.9077   -6.5902    3.0189 H         1 <0>         0.1404
     37 H12         0.8655   -6.7184    3.1056 H         1 <0>         0.1346
     38 H13         0.6892   -6.6325    5.4821 H         1 <0>         0.4287
     39 H14        -1.1162   -8.6156    4.2873 H         1 <0>         0.1210
     40 H15         0.6571   -8.7438    4.3740 H         1 <0>         0.1216
     41 H16         1.7733   -9.1237    6.4957 H         1 <0>         0.1094
     42 H17         1.6001  -10.0663    8.7625 H         1 <0>         0.1213
     43 H18        -2.6615   -9.7770    8.5464 H         1 <0>         0.1111
     44 H19        -2.4764   -8.8255    6.2842 H         1 <0>         0.1067
     45 H20        -1.1779  -10.7432   12.9864 H         1 <0>         0.1192
     46 H21        -2.7283  -11.6161   12.9372 H         1 <0>         0.1089
     47 H22        -1.2546  -12.3829   12.2981 H         1 <0>         0.1195
     48 H23         2.0973   -4.7563    3.8873 H         1 <0>         0.3877
     49 H24        -0.9523   -6.5138    5.4019 H         1 <0>         0.4256
@<TRIPOS>BOND
     1    1    2 1
     2    1   26 1
     3    1   27 1
     4    1   28 1
     5    2    7 ar
     6    2    3 ar
     7    3    4 ar
     8    3   29 1
     9    4    5 ar
    10    4   30 1
    11    5    6 ar
    12    5   31 1
    13    6    7 ar
    14    6    8 1
    15    7   32 1
    16    8    9 1
    17    9   10 1
    18    9   33 1
    19    9   34 1
    20   10   11 1
    21   10   25 1
    22   10   35 1
    23   11   12 1
    24   11   36 1
    25   11   37 1
    26   12   13 1
    27   12   38 1
    28   12   49 1
    29   13   14 1
    30   13   39 1
    31   13   40 1
    32   14   19 ar
    33   14   15 ar
    34   15   16 ar
    35   15   41 1
    36   16   17 ar
    37   16   42 1
    38   17   18 ar
    39   17   20 1
    40   18   19 ar
    41   18   43 1
    42   19   44 1
    43   20   21 1
    44   21   22 2
    45   21   23 2
    46   21   24 1
    47   24   45 1
    48   24   46 1
    49   24   47 1
    50   25   48 1
@<TRIPOS>MOLECULE
CHEMBL513104
   47    49     0     0     0
SMALL
USER_CHARGES

@<TRIPOS>ATOM
      1 C1         -0.0187    1.5258    0.0104 C.3       1 <0>        -0.1792
      2 C2          0.0021   -0.0041    0.0020 C.3       1 <0>         0.0548
      3 C3          0.7421   -0.5109    1.2415 C.3       1 <0>        -0.1797
      4 C4         -1.4333   -0.5336    0.0129 C.3       1 <0>        -0.1778
      5 N1          0.6897   -0.4778   -1.2066 N.4       1 <0>        -0.4982
      6 C5          2.0678    0.0307   -1.2170 C.3       1 <0>        -0.0510
      7 C6          2.7840   -0.4628   -2.4758 C.3       1 <0>         0.0877
      8 C7          4.2531   -0.0383   -2.4263 C.3       1 <0>         0.0273
      9 O1          4.9483   -0.5972   -3.5427 O.3       1 <0>        -0.2946
     10 C8          6.2729   -0.3148   -3.6487 C.ar      1 <0>         0.1776
     11 C9          6.8942    0.4775   -2.6977 C.ar      1 <0>        -0.2318
     12 C10         8.2442    0.7637   -2.8081 C.ar      1 <0>        -0.0429
     13 C11         8.9850    0.2667   -3.8605 C.ar      1 <0>        -0.1423
     14 C12         8.3810   -0.5302   -4.8261 C.ar      1 <0>         0.1267
     15 C13         7.0161   -0.8260   -4.7127 C.ar      1 <0>        -0.1471
     16 C14         6.6950   -1.6826   -5.8697 C.ar      1 <0>        -0.1105
     17 C15         5.5328   -2.2956   -6.3261 C.ar      1 <0>        -0.0616
     18 C16         5.5662   -3.0535   -7.4779 C.ar      1 <0>        -0.1343
     19 C17         6.7529   -3.2041   -8.1775 C.ar      1 <0>        -0.0813
     20 C18         7.9108   -2.6008   -7.7338 C.ar      1 <0>        -0.1091
     21 C19         7.8968   -1.8329   -6.5756 C.ar      1 <0>         0.0769
     22 O2          8.8603   -1.1339   -5.9359 O.3       1 <0>        -0.1932
     23 O3          2.1628    0.1050   -3.6307 O.3       1 <0>        -0.5422
     24 H1          1.0039    1.9031    0.0027 H         1 <0>         0.0806
     25 H2         -0.5459    1.8868   -0.8726 H         1 <0>         0.0837
     26 H3         -0.5289    1.8773    0.9072 H         1 <0>         0.1074
     27 H4          0.2319   -0.1594    2.1383 H         1 <0>         0.1075
     28 H5          0.7568   -1.6008    1.2356 H         1 <0>         0.0838
     29 H6          1.7647   -0.1336    1.2338 H         1 <0>         0.0812
     30 H7         -1.9605   -0.1726   -0.8702 H         1 <0>         0.0835
     31 H8         -1.4185   -1.6235    0.0069 H         1 <0>         0.0834
     32 H9         -1.9435   -0.1821    0.9097 H         1 <0>         0.1079
     33 H10         0.7033   -1.4867   -1.2121 H         1 <0>         0.4287
     34 H11         2.0530    1.1205   -1.2110 H         1 <0>         0.1424
     35 H12         2.5950   -0.3304   -0.3340 H         1 <0>         0.1480
     36 H13         2.7213   -1.5498   -2.5270 H         1 <0>         0.1343
     37 H14         4.3186    1.0490   -2.4647 H         1 <0>         0.0797
     38 H15         4.7039   -0.3970   -1.5010 H         1 <0>         0.0839
     39 H16         6.3249    0.8727   -1.8694 H         1 <0>         0.1343
     40 H17         8.7222    1.3825   -2.0631 H         1 <0>         0.1453
     41 H18        10.0374    0.4977   -3.9345 H         1 <0>         0.1429
     42 H19         4.6081   -2.1788   -5.7806 H         1 <0>         0.1294
     43 H20         4.6657   -3.5308   -7.8351 H         1 <0>         0.1343
     44 H21         6.7711   -3.7998   -9.0782 H         1 <0>         0.1418
     45 H22         8.8300   -2.7255   -8.2870 H         1 <0>         0.1391
     46 H23         2.1814    1.0716   -3.6522 H         1 <0>         0.3904
     47 H24         0.2017   -0.1436   -2.0240 H         1 <0>         0.4323
@<TRIPOS>BOND
     1    1    2 1
     2    1   24 1
     3    1   25 1
     4    1   26 1
     5    2    3 1
     6    2    4 1
     7    2    5 1
     8    3   27 1
     9    3   28 1
    10    3   29 1
    11    4   30 1
    12    4   31 1
    13    4   32 1
    14    5    6 1
    15    5   33 1
    16    5   47 1
    17    6    7 1
    18    6   34 1
    19    6   35 1
    20    7    8 1
    21    7   23 1
    22    7   36 1
    23    8    9 1
    24    8   37 1
    25    8   38 1
    26    9   10 1
    27   10   15 ar
    28   10   11 ar
    29   11   12 ar
    30   11   39 1
    31   12   13 ar
    32   12   40 1
    33   13   14 ar
    34   13   41 1
    35   14   22 1
    36   14   15 ar
    37   15   16 1
    38   16   21 ar
    39   16   17 ar
    40   17   18 ar
    41   17   42 1
    42   18   19 ar
    43   18   43 1
    44   19   20 ar
    45   19   44 1
    46   20   21 ar
    47   20   45 1
    48   21   22 1
    49   23   46 1
@<TRIPOS>MOLECULE
CHEMBL513104
   47    49     0     0     0
SMALL
USER_CHARGES

@<TRIPOS>ATOM
      1 C1         -0.0187    1.5258    0.0104 C.3       1 <0>        -0.1797
      2 C2          0.0021   -0.0041    0.0020 C.3       1 <0>         0.0548
      3 C3          0.7421   -0.5109    1.2415 C.3       1 <0>        -0.1793
      4 C4         -1.4333   -0.5336    0.0129 C.3       1 <0>        -0.1777
      5 N1          0.6897   -0.4778   -1.2066 N.4       1 <0>        -0.4976
      6 C5          2.0678    0.0307   -1.2170 C.3       1 <0>        -0.0512
      7 C6          2.7840   -0.4628   -2.4758 C.3       1 <0>         0.0875
      8 C7          4.2193    0.0668   -2.4867 C.3       1 <0>         0.0273
      9 O1          4.8516   -0.2959   -3.7158 O.3       1 <0>        -0.2945
     10 C8          6.1396    0.1005   -3.8873 C.ar      1 <0>         0.1776
     11 C9          6.7855    0.8179   -2.8942 C.ar      1 <0>        -0.2318
     12 C10         8.0981    1.2208   -3.0715 C.ar      1 <0>        -0.0429
     13 C11         8.7770    0.9150   -4.2330 C.ar      1 <0>        -0.1423
     14 C12         8.1474    0.1963   -5.2425 C.ar      1 <0>         0.1267
     15 C13         6.8209   -0.2176   -5.0623 C.ar      1 <0>        -0.1471
     16 C14         6.4599   -0.9500   -6.2905 C.ar      1 <0>        -0.1105
     17 C15         5.3072   -1.5926   -6.7299 C.ar      1 <0>        -0.0616
     18 C16         5.2922   -2.2000   -7.9679 C.ar      1 <0>        -0.1343
     19 C17         6.4213   -2.1708   -8.7710 C.ar      1 <0>        -0.0813
     20 C18         7.5694   -1.5365   -8.3452 C.ar      1 <0>        -0.1091
     21 C19         7.6034   -0.9185   -7.1009 C.ar      1 <0>         0.0769
     22 O2          8.5688   -0.2287   -6.4540 O.3       1 <0>        -0.1933
     23 O3          2.8033   -1.8916   -2.4837 O.3       1 <0>        -0.5428
     24 H1          1.0039    1.9031    0.0027 H         1 <0>         0.0812
     25 H2         -0.5459    1.8868   -0.8726 H         1 <0>         0.0838
     26 H3         -0.5289    1.8773    0.9072 H         1 <0>         0.1075
     27 H4          0.2319   -0.1594    2.1383 H         1 <0>         0.1075
     28 H5          0.7568   -1.6008    1.2356 H         1 <0>         0.0835
     29 H6          1.7647   -0.1336    1.2338 H         1 <0>         0.0807
     30 H7         -1.9605   -0.1726   -0.8702 H         1 <0>         0.0834
     31 H8         -1.4185   -1.6235    0.0069 H         1 <0>         0.0834
     32 H9         -1.9435   -0.1821    0.9097 H         1 <0>         0.1079
     33 H10         0.7033   -1.4867   -1.2121 H         1 <0>         0.4318
     34 H11         2.0530    1.1205   -1.2110 H         1 <0>         0.1485
     35 H12         2.5950   -0.3304   -0.3340 H         1 <0>         0.1418
     36 H13         2.2568   -0.1017   -3.3589 H         1 <0>         0.1353
     37 H14         4.2068    1.1525   -2.3912 H         1 <0>         0.0843
     38 H15         4.7722   -0.3649   -1.6524 H         1 <0>         0.0794
     39 H16         6.2645    1.0637   -1.9806 H         1 <0>         0.1342
     40 H17         8.5955    1.7803   -2.2931 H         1 <0>         0.1453
     41 H18         9.8007    1.2354   -4.3583 H         1 <0>         0.1429
     42 H19         4.4275   -1.6160   -6.1038 H         1 <0>         0.1294
     43 H20         4.3989   -2.6998   -8.3122 H         1 <0>         0.1343
     44 H21         6.4020   -2.6494   -9.7390 H         1 <0>         0.1418
     45 H22         8.4434   -1.5204   -8.9793 H         1 <0>         0.1390
     46 H23         3.2576   -2.2830   -1.7250 H         1 <0>         0.3900
     47 H24         0.2017   -0.1436   -2.0240 H         1 <0>         0.4290
@<TRIPOS>BOND
     1    1    2 1
     2    1   24 1
     3    1   25 1
     4    1   26 1
     5    2    3 1
     6    2    4 1
     7    2    5 1
     8    3   27 1
     9    3   28 1
    10    3   29 1
    11    4   30 1
    12    4   31 1
    13    4   32 1
    14    5    6 1
    15    5   33 1
    16    5   47 1
    17    6    7 1
    18    6   34 1
    19    6   35 1
    20    7    8 1
    21    7   23 1
    22    7   36 1
    23    8    9 1
    24    8   37 1
    25    8   38 1
    26    9   10 1
    27   10   15 ar
    28   10   11 ar
    29   11   12 ar
    30   11   39 1
    31   12   13 ar
    32   12   40 1
    33   13   14 ar
    34   13   41 1
    35   14   22 1
    36   14   15 ar
    37   15   16 1
    38   16   21 ar
    39   16   17 ar
    40   17   18 ar
    41   17   42 1
    42   18   19 ar
    43   18   43 1
    44   19   20 ar
    45   19   44 1
    46   20   21 ar
    47   20   45 1
    48   21   22 1
    49   23   46 1
@<TRIPOS>MOLECULE
CHEMBL68334
   60    63     0     0     0
SMALL
USER_CHARGES

@<TRIPOS>ATOM
      1 C1         -0.0164    1.3571    0.0095 C.ar      1 <0>        -0.1284
      2 C2          1.1699    2.0885    0.0021 C.ar      1 <0>        -0.0879
      3 C3          2.3792    1.4650   -0.0128 C.ar      1 <0>        -0.1040
      4 C4          2.4398    0.0603   -0.0209 C.ar      1 <0>         0.1548
      5 C5          1.2323   -0.6813   -0.0134 C.ar      1 <0>        -0.1290
      6 C6          0.0021   -0.0041    0.0020 C.ar      1 <0>        -0.0799
      7 C7          1.2949   -2.0872   -0.0215 C.ar      1 <0>         0.0544
      8 C8          2.5269   -2.6774   -0.0364 C.ar      1 <0>        -0.6783
      9 C9          3.6752   -1.8891   -0.0432 C.ar      1 <0>         0.2131
     10 N1          3.6131   -0.5795   -0.0351 N.ar      1 <0>        -0.4872
     11 S1          2.6631   -4.4341   -0.0465 S.o2      1 <0>         2.6141
     12 O1          3.9414   -4.7454    0.4904 O.2       1 <0>        -1.0185
     13 O2          1.4582   -4.9381    0.5136 O.2       1 <0>        -1.0241
     14 N2          2.6855   -4.9144   -1.6312 N.2       1 <0>        -1.0816
     15 C10         2.7878   -6.2707   -1.9484 C.ar      1 <0>         0.2965
     16 C11         2.8649   -7.2186   -0.9359 C.ar      1 <0>        -0.2644
     17 C12         2.9655   -8.5590   -1.2531 C.ar      1 <0>        -0.0473
     18 C13         2.9899   -8.9578   -2.5770 C.ar      1 <0>        -0.2350
     19 C14         2.9133   -8.0169   -3.5874 C.ar      1 <0>        -0.0635
     20 C15         2.8068   -6.6753   -3.2772 C.ar      1 <0>        -0.1799
     21 C16         3.1007  -10.4213   -2.9193 C.3       1 <0>        -0.0718
     22 C17         1.6999  -11.0270   -3.0283 C.3       1 <0>        -0.0110
     23 N3          1.8080  -12.4535   -3.3620 N.4       1 <0>        -0.5038
     24 C18         0.4631  -13.0351   -3.4667 C.3       1 <0>        -0.0421
     25 C19         0.5756  -14.5209   -3.8143 C.3       1 <0>         0.0871
     26 H1          1.1342  -15.0356   -3.0325 H         1 <0>         0.1352
     27 C20        -0.8252  -15.1266   -3.9233 C.3       1 <0>         0.0252
     28 O3         -0.7196  -16.5363   -4.1324 O.3       1 <0>        -0.2968
     29 C21        -1.8815  -17.2311   -4.2516 C.ar      1 <0>         0.0692
     30 C22        -1.8631  -18.6080   -4.4512 C.ar      1 <0>        -0.1013
     31 C23        -3.0730  -19.2728   -4.5668 C.ar      1 <0>        -0.1282
     32 C24        -4.2498  -18.5524   -4.4809 C.ar      1 <0>         0.0699
     33 N4         -4.2324  -17.2477   -4.2912 N.ar      1 <0>        -0.4490
     34 C25        -3.1028  -16.5786   -4.1704 C.ar      1 <0>         0.0184
     35 O4          1.2566  -14.6680   -5.0619 O.3       1 <0>        -0.5446
     36 H2         -0.9628    1.8771    0.0259 H         1 <0>         0.1299
     37 H3          1.1286    3.1677    0.0079 H         1 <0>         0.1319
     38 H4          3.2890    2.0469   -0.0187 H         1 <0>         0.1379
     39 H5         -0.9239   -0.5599    0.0079 H         1 <0>         0.1337
     40 H6          0.3941   -2.6830   -0.0157 H         1 <0>         0.1532
     41 H7          4.6425   -2.3695   -0.0546 H         1 <0>         0.1729
     42 H8          2.8467   -6.9077    0.0982 H         1 <0>         0.1019
     43 H9          3.0255   -9.2964   -0.4664 H         1 <0>         0.1024
     44 H10         2.9326   -8.3318   -4.6203 H         1 <0>         0.1050
     45 H11         2.7425   -5.9413   -4.0668 H         1 <0>         0.1171
     46 H12         3.6202  -10.5335   -3.8709 H         1 <0>         0.0812
     47 H13         3.6593  -10.9360   -2.1375 H         1 <0>         0.0803
     48 H14         1.1805  -10.9148   -2.0767 H         1 <0>         0.1315
     49 H15         1.1414  -10.5123   -3.8101 H         1 <0>         0.1314
     50 H16         2.2888  -12.5574   -4.2430 H         1 <0>         0.4302
     51 H17        -0.0564  -12.9229   -2.5151 H         1 <0>         0.1461
     52 H18        -0.0955  -12.5204   -4.2485 H         1 <0>         0.1390
     53 H19        -1.3761  -14.9362   -3.0022 H         1 <0>         0.0851
     54 H20        -1.3527  -14.6733   -4.7625 H         1 <0>         0.0796
     55 H21        -0.9283  -19.1453   -4.5148 H         1 <0>         0.1455
     56 H22        -3.0966  -20.3412   -4.7227 H         1 <0>         0.1478
     57 H23        -5.1961  -19.0651   -4.5706 H         1 <0>         0.1634
     58 H24        -3.1287  -15.5108   -4.0108 H         1 <0>         0.1548
     59 H25         0.8150  -14.2338   -5.8046 H         1 <0>         0.3900
     60 H26         2.3250  -12.9300   -2.6384 H         1 <0>         0.4279
@<TRIPOS>BOND
     1    1    6 ar
     2    1    2 ar
     3    1   36 1
     4    2    3 ar
     5    2   37 1
     6    3    4 ar
     7    3   38 1
     8    4   10 ar
     9    4    5 ar
    10    5    6 ar
    11    5    7 ar
    12    6   39 1
    13    7    8 ar
    14    7   40 1
    15    8    9 ar
    16    8   11 1
    17    9   10 ar
    18    9   41 1
    19   11   12 2
    20   11   13 2
    21   11   14 1
    22   14   15 1
    23   15   20 ar
    24   15   16 ar
    25   16   17 ar
    26   16   42 1
    27   17   18 ar
    28   17   43 1
    29   18   19 ar
    30   18   21 1
    31   19   20 ar
    32   19   44 1
    33   20   45 1
    34   21   22 1
    35   21   46 1
    36   21   47 1
    37   22   23 1
    38   22   48 1
    39   22   49 1
    40   23   24 1
    41   23   50 1
    42   23   60 1
    43   24   25 1
    44   24   51 1
    45   24   52 1
    46   25   26 1
    47   25   27 1
    48   25   35 1
    49   27   28 1
    50   27   53 1
    51   27   54 1
    52   28   29 1
    53   29   34 ar
    54   29   30 ar
    55   30   31 ar
    56   30   55 1
    57   31   32 ar
    58   31   56 1
    59   32   33 ar
    60   32   57 1
    61   33   34 ar
    62   34   58 1
    63   35   59 1
@<TRIPOS>MOLECULE
CHEMBL68334
   61    64     0     0     0
SMALL
USER_CHARGES

@<TRIPOS>ATOM
      1 C1          8.1182   -8.9350    0.4064 C.ar      1 <0>        -0.1174
      2 C2          7.4786  -10.1553    0.1971 C.ar      1 <0>        -0.0772
      3 C3          6.1364  -10.2169   -0.0179 C.ar      1 <0>        -0.1018
      4 C4          5.3768   -9.0337   -0.0302 C.ar      1 <0>         0.1660
      5 C5          6.0294   -7.7940    0.1829 C.ar      1 <0>        -0.1295
      6 C6          7.4164   -7.7685    0.4016 C.ar      1 <0>        -0.0861
      7 C7          5.2675   -6.6108    0.1703 C.ar      1 <0>         0.0674
      8 C8          3.9229   -6.7124   -0.0486 C.ar      1 <0>        -0.7369
      9 C9          3.3441   -7.9631   -0.2512 C.ar      1 <0>         0.2112
     10 N1          4.0570   -9.0634   -0.2384 N.ar      1 <0>        -0.4713
     11 S1          2.9215   -5.2628   -0.0740 S.o2      1 <0>         2.6946
     12 O1          1.6284   -5.6547    0.3656 O.2       1 <0>        -0.9343
     13 O2          3.6689   -4.2416    0.5723 O.2       1 <0>        -0.9421
     14 N2          2.7643   -4.8041   -1.6574 N.pl3     1 <0>        -1.0662
     15 C10         3.8919   -4.4280   -2.3909 C.ar      1 <0>         0.1413
     16 C11         4.4831   -3.1901   -2.1728 C.ar      1 <0>        -0.0999
     17 C12         5.5982   -2.8215   -2.8994 C.ar      1 <0>        -0.0983
     18 C13         6.1260   -3.6831   -3.8435 C.ar      1 <0>        -0.1006
     19 C14         5.5399   -4.9162   -4.0632 C.ar      1 <0>        -0.1006
     20 C15         4.4280   -5.2934   -3.3360 C.ar      1 <0>        -0.1081
     21 C16         7.3424   -3.2771   -4.6352 C.3       1 <0>        -0.1027
     22 C17         8.6049   -3.7232   -3.8950 C.3       1 <0>        -0.0085
     23 N3          9.7906   -3.3274   -4.6667 N.4       1 <0>        -0.5039
     24 C18        11.0028   -3.7557   -3.9560 C.3       1 <0>        -0.0422
     25 C19        12.2377   -3.3436   -4.7597 C.3       1 <0>         0.0863
     26 H1         12.2494   -2.2600   -4.8777 H         1 <0>         0.1371
     27 C20        13.5002   -3.7896   -4.0195 C.3       1 <0>         0.0258
     28 O3         14.6535   -3.3040   -4.7095 O.3       1 <0>        -0.2967
     29 C21        15.8659   -3.6143   -4.1793 C.ar      1 <0>         0.0656
     30 C22        17.0364   -3.1737   -4.7890 C.ar      1 <0>        -0.0992
     31 C23        18.2484   -3.5153   -4.2115 C.ar      1 <0>        -0.1264
     32 C24        18.2555   -4.2767   -3.0575 C.ar      1 <0>         0.0736
     33 N4         17.1278   -4.6783   -2.5047 N.ar      1 <0>        -0.4491
     34 C25        15.9538   -4.3700   -3.0194 C.ar      1 <0>         0.0182
     35 O4         12.1965   -3.9625   -6.0471 O.3       1 <0>        -0.5432
     36 H2          9.1841   -8.9148    0.5792 H         1 <0>         0.1343
     37 H3          8.0577  -11.0669    0.2052 H         1 <0>         0.1389
     38 H4          5.6564  -11.1709   -0.1788 H         1 <0>         0.1446
     39 H5          7.9233   -6.8289    0.5651 H         1 <0>         0.1339
     40 H6          5.7328   -5.6493    0.3296 H         1 <0>         0.1557
     41 H7          2.2798   -8.0282   -0.4227 H         1 <0>         0.1754
     42 H8          1.8890   -4.7966   -2.0756 H         1 <0>         0.4332
     43 H9          4.0710   -2.5164   -1.4360 H         1 <0>         0.1445
     44 H10         6.0584   -1.8592   -2.7303 H         1 <0>         0.1343
     45 H11         5.9546   -5.5867   -4.8013 H         1 <0>         0.1310
     46 H12         3.9735   -6.2584   -3.5049 H         1 <0>         0.1354
     47 H13         7.3110   -3.7492   -5.6171 H         1 <0>         0.0993
     48 H14         7.3541   -2.1936   -4.7531 H         1 <0>         0.1004
     49 H15         8.6363   -3.2511   -2.9130 H         1 <0>         0.1366
     50 H16         8.5932   -4.8067   -3.7770 H         1 <0>         0.1344
     51 H17         9.7615   -3.7644   -5.5757 H         1 <0>         0.4340
     52 H18        11.0342   -3.2837   -2.9740 H         1 <0>         0.1485
     53 H19        10.9911   -4.8393   -3.8380 H         1 <0>         0.1405
     54 H20        13.4878   -3.3891   -3.0059 H         1 <0>         0.0845
     55 H21        13.5324   -4.8784   -3.9795 H         1 <0>         0.0791
     56 H22        17.0009   -2.5803   -5.6907 H         1 <0>         0.1462
     57 H23        19.1769   -3.1910   -4.6577 H         1 <0>         0.1498
     58 H24        19.1973   -4.5464   -2.6029 H         1 <0>         0.1653
     59 H25        15.0514   -4.7130   -2.5354 H         1 <0>         0.1527
     60 H26        12.1841   -4.9290   -6.0186 H         1 <0>         0.3906
     61 H27         9.8014   -2.3244   -4.7759 H         1 <0>         0.4320
@<TRIPOS>BOND
     1    1    6 ar
     2    1    2 ar
     3    1   36 1
     4    2    3 ar
     5    2   37 1
     6    3    4 ar
     7    3   38 1
     8    4   10 ar
     9    4    5 ar
    10    5    6 ar
    11    5    7 ar
    12    6   39 1
    13    7    8 ar
    14    7   40 1
    15    8    9 ar
    16    8   11 1
    17    9   10 ar
    18    9   41 1
    19   11   12 2
    20   11   13 2
    21   11   14 1
    22   14   15 1
    23   14   42 1
    24   15   20 ar
    25   15   16 ar
    26   16   17 ar
    27   16   43 1
    28   17   18 ar
    29   17   44 1
    30   18   19 ar
    31   18   21 1
    32   19   20 ar
    33   19   45 1
    34   20   46 1
    35   21   22 1
    36   21   47 1
    37   21   48 1
    38   22   23 1
    39   22   49 1
    40   22   50 1
    41   23   24 1
    42   23   51 1
    43   23   61 1
    44   24   25 1
    45   24   52 1
    46   24   53 1
    47   25   26 1
    48   25   27 1
    49   25   35 1
    50   27   28 1
    51   27   54 1
    52   27   55 1
    53   28   29 1
    54   29   34 ar
    55   29   30 ar
    56   30   31 ar
    57   30   56 1
    58   31   32 ar
    59   31   57 1
    60   32   33 ar
    61   32   58 1
    62   33   34 ar
    63   34   59 1
    64   35   60 1
@<TRIPOS>MOLECULE
CHEMBL6913
   37    38     0     0     0
SMALL
USER_CHARGES

@<TRIPOS>ATOM
      1 C1          0.8277   -0.2841   -1.2453 C.3       1 <0>        -0.1833
      2 C2         -0.0718   -0.1444   -0.0155 C.3       1 <0>         0.0196
      3 C3         -1.3267   -0.9995   -0.2018 C.3       1 <0>        -0.1842
      4 N1          0.6563   -0.5966    1.1776 N.4       1 <0>        -0.5033
      5 C4         -0.1527   -0.3312    2.3747 C.3       1 <0>         0.0299
      6 H1         -1.1431   -0.7698    2.2530 H         1 <0>         0.1534
      7 C5         -0.2805    1.1819    2.5864 C.3       1 <0>        -0.1367
      8 C6         -1.3142    1.4290    3.6833 C.3       1 <0>        -0.0763
      9 C7         -0.9997    0.6032    4.9032 C.ar      1 <0>        -0.0836
     10 C8         -0.1587   -0.4871    4.8640 C.ar      1 <0>        -0.1255
     11 C9          0.0843   -1.2129    6.0229 C.ar      1 <0>        -0.0969
     12 C10        -0.5036   -0.8509    7.2177 C.ar      1 <0>        -0.1240
     13 C11        -1.3463    0.2476    7.2648 C.ar      1 <0>         0.1069
     14 C12        -1.5935    0.9733    6.1063 C.ar      1 <0>         0.0870
     15 O1         -2.4209    2.0518    6.1480 O.3       1 <0>        -0.4863
     16 O2         -1.9278    0.6138    8.4383 O.3       1 <0>        -0.4883
     17 C13         0.5298   -0.9343    3.6007 C.3       1 <0>         0.1419
     18 H2          1.5712   -0.6135    3.6264 H         1 <0>         0.0898
     19 O3          0.4787   -2.3598    3.5148 O.3       1 <0>        -0.5632
     20 H3          1.1861   -1.3109   -1.3186 H         1 <0>         0.0816
     21 H4          0.2600   -0.0326   -2.1411 H         1 <0>         0.1078
     22 H5          1.6779    0.3917   -1.1523 H         1 <0>         0.0827
     23 H6         -0.3587    0.8999    0.1080 H         1 <0>         0.1403
     24 H7         -1.0398   -2.0438   -0.3253 H         1 <0>         0.0837
     25 H8         -1.9676   -0.9000    0.6743 H         1 <0>         0.0797
     26 H9         -1.8669   -0.6639   -1.0871 H         1 <0>         0.1069
     27 H10         0.8367   -1.5868    1.1063 H         1 <0>         0.4336
     28 H11         0.6823    1.5928    2.8900 H         1 <0>         0.0972
     29 H12        -0.6071    1.6559    1.6608 H         1 <0>         0.1021
     30 H13        -1.3070    2.4852    3.9526 H         1 <0>         0.1077
     31 H14        -2.3032    1.1600    3.3124 H         1 <0>         0.0913
     32 H15         0.7403   -2.0701    5.9886 H         1 <0>         0.1321
     33 H16        -0.3072   -1.4218    8.1132 H         1 <0>         0.1444
     34 H17        -3.3498    1.8416    5.9803 H         1 <0>         0.3989
     35 H18        -1.4060    1.2413    8.9569 H         1 <0>         0.4030
     36 H19         0.8938   -2.8139    4.2608 H         1 <0>         0.4052
     37 H20         1.5315   -0.0993    1.2461 H         1 <0>         0.4250
@<TRIPOS>BOND
     1    1    2 1
     2    1   20 1
     3    1   21 1
     4    1   22 1
     5    2    3 1
     6    2    4 1
     7    2   23 1
     8    3   24 1
     9    3   25 1
    10    3   26 1
    11    4    5 1
    12    4   27 1
    13    4   37 1
    14    5    6 1
    15    5   17 1
    16    5    7 1
    17    7    8 1
    18    7   28 1
    19    7   29 1
    20    8    9 1
    21    8   30 1
    22    8   31 1
    23    9   14 ar
    24    9   10 ar
    25   10   11 ar
    26   10   17 1
    27   11   12 ar
    28   11   32 1
    29   12   13 ar
    30   12   33 1
    31   13   14 ar
    32   13   16 1
    33   14   15 1
    34   15   34 1
    35   16   35 1
    36   17   18 1
    37   17   19 1
    38   19   36 1
@<TRIPOS>MOLECULE
CHEMBL288624
   44    47     0     0     0
SMALL
USER_CHARGES

@<TRIPOS>ATOM
      1 C1         -0.0416    1.2222   -1.3269 C.ar      1 <0>        -0.0983
      2 C2          1.1237    1.9745   -1.3021 C.ar      1 <0>        -0.1184
      3 C3          2.3422    1.3317   -1.1804 C.ar      1 <0>        -0.0540
      4 C4          2.3798   -0.0368   -1.0863 C.ar      1 <0>        -0.1637
      5 C5          1.2140   -0.8354   -1.1081 C.ar      1 <0>         0.1280
      6 C6         -0.0134   -0.1449   -1.2336 C.ar      1 <0>        -0.0861
      7 N1          1.4149   -2.1677   -1.0063 N.2       1 <0>        -0.5837
      8 C7          2.6135   -2.6936   -0.8941 C.2       1 <0>         0.4184
      9 S1          3.6672   -1.2503   -0.9226 S.3       1 <0>        -0.0236
     10 N2          2.9686   -4.0225   -0.7826 N.pl3     1 <0>        -0.6658
     11 C8          4.3804   -4.3962   -0.6668 C.3       1 <0>         0.0939
     12 C9          4.4979   -5.9177   -0.5578 C.3       1 <0>         0.1048
     13 C10         5.9588   -6.3001   -0.3120 C.3       1 <0>         0.0453
     14 O1          6.0522   -7.7093   -0.0944 O.3       1 <0>        -0.2178
     15 N3          7.3701   -8.1692    0.1441 N.2       1 <0>        -0.3424
     16 C11         7.5856   -9.4129    0.3535 C.2       1 <0>         0.2032
     17 C12         8.9984   -9.9221    0.4791 C.3       1 <0>        -0.1115
     18 C13         9.8337   -9.4060    1.6525 C.3       1 <0>        -0.1575
     19 C14        10.1330   -8.9261    0.2309 C.3       1 <0>        -0.1611
     20 C15         6.4267  -10.3686    0.4744 C.3       1 <0>        -0.1576
     21 C16         5.2622   -9.9561    1.3770 C.3       1 <0>        -0.1523
     22 C17         6.2208  -11.0622    1.8226 C.3       1 <0>        -0.1633
     23 O2          4.0462   -6.5187   -1.7730 O.3       1 <0>        -0.5451
     24 H1         -0.9928    1.7255   -1.4174 H         1 <0>         0.1324
     25 H2          1.0799    3.0510   -1.3774 H         1 <0>         0.1366
     26 H3          3.2584    1.9031   -1.1599 H         1 <0>         0.1308
     27 H4         -0.9390   -0.7009   -1.2561 H         1 <0>         0.1305
     28 H5          2.2834   -4.7091   -0.7809 H         1 <0>         0.4238
     29 H6          4.9207   -4.0523   -1.5488 H         1 <0>         0.0812
     30 H7          4.8067   -3.9341    0.2236 H         1 <0>         0.0865
     31 H8          3.8854   -6.2709    0.2718 H         1 <0>         0.1193
     32 H9          6.5572   -6.0262   -1.1810 H         1 <0>         0.0649
     33 H10         6.3300   -5.7715    0.5660 H         1 <0>         0.0688
     34 H11         9.1562  -10.9535    0.1638 H         1 <0>         0.1321
     35 H12         9.3613   -8.6982    2.3336 H         1 <0>         0.0961
     36 H13        10.5411  -10.0979    2.1096 H         1 <0>         0.1048
     37 H14        11.0374   -9.3024   -0.2473 H         1 <0>         0.1023
     38 H15         9.8576   -7.9026   -0.0233 H         1 <0>         0.1048
     39 H16         6.1899  -10.9367   -0.4252 H         1 <0>         0.1222
     40 H17         5.3343   -8.9935    1.8833 H         1 <0>         0.0935
     41 H18         4.2589  -10.2527    1.0711 H         1 <0>         0.0996
     42 H19         5.8481  -12.0864    1.8099 H         1 <0>         0.1012
     43 H20         6.9235  -10.8273    2.6220 H         1 <0>         0.0972
     44 H21         4.5471   -6.2491   -2.5550 H         1 <0>         0.3800
@<TRIPOS>BOND
     1    1    6 ar
     2    1    2 ar
     3    1   24 1
     4    2    3 ar
     5    2   25 1
     6    3    4 ar
     7    3   26 1
     8    4    9 1
     9    4    5 ar
    10    5    6 ar
    11    5    7 1
    12    6   27 1
    13    7    8 2
    14    8    9 1
    15    8   10 1
    16   10   11 1
    17   10   28 1
    18   11   12 1
    19   11   29 1
    20   11   30 1
    21   12   13 1
    22   12   23 1
    23   12   31 1
    24   13   14 1
    25   13   32 1
    26   13   33 1
    27   14   15 1
    28   15   16 2
    29   16   17 1
    30   16   20 1
    31   17   19 1
    32   17   18 1
    33   17   34 1
    34   18   19 1
    35   18   35 1
    36   18   36 1
    37   19   37 1
    38   19   38 1
    39   20   22 1
    40   20   21 1
    41   20   39 1
    42   21   22 1
    43   21   40 1
    44   21   41 1
    45   22   42 1
    46   22   43 1
    47   23   44 1
@<TRIPOS>MOLECULE
CHEMBL288624
   44    47     0     0     0
SMALL
USER_CHARGES

@<TRIPOS>ATOM
      1 C1          0.0050    1.3429   -1.3335 C.ar      1 <0>        -0.0983
      2 C2          1.1770    2.0846   -1.3062 C.ar      1 <0>        -0.1184
      3 C3          2.3895    1.4307   -1.1833 C.ar      1 <0>        -0.0540
      4 C4          2.4145    0.0618   -1.0905 C.ar      1 <0>        -0.1637
      5 C5          1.2416   -0.7262   -1.1148 C.ar      1 <0>         0.1280
      6 C6          0.0206   -0.0245   -1.2415 C.ar      1 <0>        -0.0861
      7 N1          1.4303   -2.0604   -1.0139 N.2       1 <0>        -0.5838
      8 C7          2.6238   -2.5972   -0.9004 C.2       1 <0>         0.4186
      9 S1          3.6906   -1.1635   -0.9259 S.3       1 <0>        -0.0240
     10 N2          2.9667   -3.9293   -0.7896 N.pl3     1 <0>        -0.6654
     11 C8          4.3749   -4.3159   -0.6721 C.3       1 <0>         0.0936
     12 C9          4.4785   -5.8386   -0.5643 C.3       1 <0>         0.1048
     13 C10         5.9491   -6.2423   -0.4415 C.3       1 <0>         0.0455
     14 O1          6.0549   -7.6673   -0.4580 O.3       1 <0>        -0.2180
     15 N3          7.3825   -8.1476   -0.3493 N.2       1 <0>        -0.3425
     16 C11         7.6095   -9.4068   -0.3520 C.2       1 <0>         0.2033
     17 C12         9.0275   -9.9168   -0.3663 C.3       1 <0>        -0.1115
     18 C13         9.9084   -9.5889    0.8410 C.3       1 <0>        -0.1574
     19 C14        10.1486   -8.8836   -0.4953 C.3       1 <0>        -0.1612
     20 C15         6.4589  -10.3799   -0.3410 C.3       1 <0>        -0.1599
     21 C16         5.3309  -10.1288    0.6617 C.3       1 <0>        -0.1484
     22 C17         6.3096  -11.2836    0.8846 C.3       1 <0>        -0.1642
     23 O2          3.7642   -6.2841    0.5904 O.3       1 <0>        -0.5450
     24 H1         -0.9415    1.8549   -1.4250 H         1 <0>         0.1324
     25 H2          1.1430    3.1615   -1.3805 H         1 <0>         0.1366
     26 H3          3.3108    1.9938   -1.1608 H         1 <0>         0.1308
     27 H4         -0.9099   -0.5721   -1.2660 H         1 <0>         0.1305
     28 H5          2.2754   -4.6097   -0.7896 H         1 <0>         0.4243
     29 H6          4.9197   -3.9761   -1.5529 H         1 <0>         0.0870
     30 H7          4.8040   -3.8585    0.2194 H         1 <0>         0.0804
     31 H8          4.0494   -6.2959   -1.4558 H         1 <0>         0.1199
     32 H9          6.5111   -5.8266   -1.2779 H         1 <0>         0.0701
     33 H10         6.3542   -5.8587    0.4949 H         1 <0>         0.0633
     34 H11         9.1750  -10.8824   -0.8499 H         1 <0>         0.1320
     35 H12         9.4622   -9.0044    1.6456 H         1 <0>         0.0960
     36 H13        10.6355  -10.3391    1.1520 H         1 <0>         0.1048
     37 H14        11.0338   -9.1696   -1.0634 H         1 <0>         0.1023
     38 H15         9.8605   -7.8350   -0.5698 H         1 <0>         0.1049
     39 H16         6.1872  -10.7977   -1.3104 H         1 <0>         0.1213
     40 H17         5.4210   -9.2598    1.3134 H         1 <0>         0.0958
     41 H18         4.3167  -10.3813    0.3520 H         1 <0>         0.0990
     42 H19         5.9393  -12.2957    0.7215 H         1 <0>         0.1007
     43 H20         7.0436  -11.1742    1.6829 H         1 <0>         0.0968
     44 H21         4.0926   -5.9161    1.4222 H         1 <0>         0.3793
@<TRIPOS>BOND
     1    1    6 ar
     2    1    2 ar
     3    1   24 1
     4    2    3 ar
     5    2   25 1
     6    3    4 ar
     7    3   26 1
     8    4    9 1
     9    4    5 ar
    10    5    6 ar
    11    5    7 1
    12    6   27 1
    13    7    8 2
    14    8    9 1
    15    8   10 1
    16   10   11 1
    17   10   28 1
    18   11   12 1
    19   11   29 1
    20   11   30 1
    21   12   13 1
    22   12   23 1
    23   12   31 1
    24   13   14 1
    25   13   32 1
    26   13   33 1
    27   14   15 1
    28   15   16 2
    29   16   17 1
    30   16   20 1
    31   17   19 1
    32   17   18 1
    33   17   34 1
    34   18   19 1
    35   18   35 1
    36   18   36 1
    37   19   37 1
    38   19   38 1
    39   20   22 1
    40   20   21 1
    41   20   39 1
    42   21   22 1
    43   21   40 1
    44   21   41 1
    45   22   42 1
    46   22   43 1
    47   23   44 1
@<TRIPOS>MOLECULE
CHEMBL1204383
   58    60     0     0     0
SMALL
USER_CHARGES

@<TRIPOS>ATOM
      1 C1          1.0005    1.3797    2.9521 C.ar      1 <0>        -0.1300
      2 C2          1.5808    0.2264    3.4476 C.ar      1 <0>        -0.0995
      3 C3          2.5252   -0.4494    2.7000 C.ar      1 <0>        -0.1199
      4 C4          2.8919    0.0304    1.4495 C.ar      1 <0>         0.1528
      5 C5          2.3073    1.1889    0.9547 C.ar      1 <0>        -0.1435
      6 C6          1.3635    1.8601    1.7073 C.ar      1 <0>        -0.0982
      7 N1          3.8488   -0.6517    0.6898 N.am      1 <0>        -0.6773
      8 C7          3.9365   -1.9945    0.7646 C.2       1 <0>         0.7049
      9 O1          3.1250   -2.6212    1.4182 O.2       1 <0>        -0.5508
     10 N2          4.9236   -2.6426    0.1151 N.am      1 <0>        -0.6856
     11 C8          4.9524   -4.0416    0.1029 C.ar      1 <0>         0.1871
     12 C9          3.7652   -4.7620    0.1032 C.ar      1 <0>        -0.1184
     13 C10         3.7969   -6.1427    0.0912 C.ar      1 <0>        -0.0847
     14 C11         5.0092   -6.8078    0.0789 C.ar      1 <0>        -0.1298
     15 C12         6.1931   -6.0934    0.0791 C.ar      1 <0>        -0.0846
     16 C13         6.1681   -4.7125    0.0848 C.ar      1 <0>        -0.1449
     17 C14         5.0401   -8.3145    0.0658 C.3       1 <0>        -0.0973
     18 C15         5.0428   -8.8120   -1.3810 C.3       1 <0>        -0.0071
     19 N3          5.0729  -10.2806   -1.3937 N.4       1 <0>        -0.5039
     20 C16         5.0755  -10.7583   -2.7829 C.3       1 <0>        -0.0414
     21 C17         5.1069  -12.2879   -2.7962 C.3       1 <0>         0.0854
     22 H1          4.2273  -12.6739   -2.2808 H         1 <0>         0.1360
     23 C18         5.1095  -12.7855   -4.2430 C.3       1 <0>         0.0298
     24 O2          5.0214  -14.2117   -4.2564 O.3       1 <0>        -0.3028
     25 C19         5.0119  -14.8178   -5.4727 C.ar      1 <0>         0.1165
     26 C20         5.0918  -14.0559   -6.6294 C.ar      1 <0>        -0.2096
     27 C21         5.0825  -14.6745   -7.8646 C.ar      1 <0>        -0.0801
     28 C22         4.9932  -16.0517   -7.9487 C.ar      1 <0>        -0.1475
     29 C23         4.9131  -16.8132   -6.7974 C.ar      1 <0>        -0.0764
     30 C24         4.9282  -16.1999   -5.5597 C.ar      1 <0>        -0.1445
     31 O3          6.2868  -12.7459   -2.1328 O.3       1 <0>        -0.5434
     32 H2          0.2590    1.9039    3.5367 H         1 <0>         0.1267
     33 H3          1.2954   -0.1460    4.4204 H         1 <0>         0.1277
     34 H4          2.9783   -1.3498    3.0877 H         1 <0>         0.1340
     35 H5          2.5907    1.5647   -0.0173 H         1 <0>         0.1261
     36 H6          0.9086    2.7611    1.3231 H         1 <0>         0.1296
     37 H7          4.4490   -0.1581    0.1092 H         1 <0>         0.4103
     38 H8          5.6142   -2.1393   -0.3440 H         1 <0>         0.4126
     39 H9          2.8180   -4.2431    0.1131 H         1 <0>         0.1426
     40 H10         2.8739   -6.7035    0.0917 H         1 <0>         0.1282
     41 H11         7.1384   -6.6158    0.0698 H         1 <0>         0.1291
     42 H12         7.0931   -4.1550    0.0797 H         1 <0>         0.1326
     43 H13         5.9401   -8.6638    0.5718 H         1 <0>         0.0962
     44 H14         4.1606   -8.7004    0.5812 H         1 <0>         0.0964
     45 H15         4.1427   -8.4627   -1.8870 H         1 <0>         0.1344
     46 H16         5.9223   -8.4260   -1.8963 H         1 <0>         0.1337
     47 H17         5.9061  -10.6040   -0.9253 H         1 <0>         0.4334
     48 H18         4.1754  -10.4090   -3.2889 H         1 <0>         0.1470
     49 H19         5.9550  -10.3724   -3.2982 H         1 <0>         0.1396
     50 H20         4.2561  -12.3636   -4.7738 H         1 <0>         0.0813
     51 H21         6.0321  -12.4738   -4.7327 H         1 <0>         0.0762
     52 H22         5.1608  -12.9801   -6.5642 H         1 <0>         0.1233
     53 H23         5.1447  -14.0818   -8.7653 H         1 <0>         0.1285
     54 H24         4.9858  -16.5334   -8.9153 H         1 <0>         0.1296
     55 H25         4.8431  -17.8888   -6.8658 H         1 <0>         0.1353
     56 H26         4.8700  -16.7954   -4.6606 H         1 <0>         0.1333
     57 H27         7.1098  -12.4401   -2.5382 H         1 <0>         0.3899
     58 H28         4.2588  -10.6379   -0.9167 H         1 <0>         0.4313
@<TRIPOS>BOND
     1    1    6 ar
     2    1    2 ar
     3    1   32 1
     4    2    3 ar
     5    2   33 1
     6    3    4 ar
     7    3   34 1
     8    4    5 ar
     9    4    7 1
    10    5    6 ar
    11    5   35 1
    12    6   36 1
    13    7    8 am
    14    7   37 1
    15    8    9 2
    16    8   10 am
    17   10   11 1
    18   10   38 1
    19   11   16 ar
    20   11   12 ar
    21   12   13 ar
    22   12   39 1
    23   13   14 ar
    24   13   40 1
    25   14   15 ar
    26   14   17 1
    27   15   16 ar
    28   15   41 1
    29   16   42 1
    30   17   18 1
    31   17   43 1
    32   17   44 1
    33   18   19 1
    34   18   45 1
    35   18   46 1
    36   19   20 1
    37   19   47 1
    38   19   58 1
    39   20   21 1
    40   20   48 1
    41   20   49 1
    42   21   22 1
    43   21   23 1
    44   21   31 1
    45   23   24 1
    46   23   50 1
    47   23   51 1
    48   24   25 1
    49   25   30 ar
    50   25   26 ar
    51   26   27 ar
    52   26   52 1
    53   27   28 ar
    54   27   53 1
    55   28   29 ar
    56   28   54 1
    57   29   30 ar
    58   29   55 1
    59   30   56 1
    60   31   57 1
@<TRIPOS>MOLECULE
CHEMBL250144
   54    57     0     0     0
SMALL
USER_CHARGES

@<TRIPOS>ATOM
      1 C1         -0.0167    1.3793    0.0096 C.ar      1 <0>        -0.0938
      2 C2          1.1684    2.0933    0.0021 C.ar      1 <0>        -0.1159
      3 C3          2.3774    1.4289   -0.0134 C.ar      1 <0>        -0.0887
      4 C4          2.4033    0.0336   -0.0212 C.ar      1 <0>        -0.0270
      5 C5          1.2044   -0.6806   -0.0131 C.ar      1 <0>        -0.0689
      6 C6          0.0021   -0.0041    0.0020 C.ar      1 <0>        -0.1210
      7 C7          3.6955   -0.6850   -0.0384 C.2       1 <0>         0.1699
      8 N1          3.9294   -1.9877   -0.0532 N.2       1 <0>        -0.4981
      9 C8          5.1601   -2.4633   -0.0675 C.2       1 <0>         0.0959
     10 C9          6.2183   -1.5920   -0.0670 C.2       1 <0>        -0.1986
     11 S1          5.3567   -0.0250   -0.0526 S.3       1 <0>         0.0397
     12 C10         5.3964   -3.9280   -0.0835 C.ar      1 <0>        -0.0394
     13 C11         6.6985   -4.4251   -0.0923 C.ar      1 <0>        -0.0650
     14 C12         6.9150   -5.7873   -0.1071 C.ar      1 <0>        -0.1379
     15 C13         5.8377   -6.6627   -0.1134 C.ar      1 <0>         0.1157
     16 C14         4.5398   -6.1706   -0.1051 C.ar      1 <0>        -0.2023
     17 C15         4.3169   -4.8095   -0.0840 C.ar      1 <0>        -0.0460
     18 O1          6.0542   -8.0043   -0.1281 O.3       1 <0>        -0.3281
     19 C16         4.9006   -8.8476   -0.1337 C.3       1 <0>         0.0242
     20 C17         5.3401  -10.3130   -0.1503 C.3       1 <0>         0.0007
     21 N2          6.0449  -10.6270    1.0998 N.4       1 <0>        -0.5061
     22 C18         6.4669  -12.0340    1.0838 C.3       1 <0>        -0.0435
     23 C19         7.2009  -12.3611    2.3858 C.3       1 <0>         0.1415
     24 H1          6.5342  -12.1912    3.2313 H         1 <0>         0.1337
     25 C20         7.6338  -13.8044    2.3695 C.ar      1 <0>        -0.2003
     26 C21         6.8424  -14.7815    2.9544 C.ar      1 <0>        -0.0549
     27 C22         7.2806  -16.0961    2.9155 C.ar      1 <0>        -0.1642
     28 C23         8.4832  -16.3873    2.2993 C.ar      1 <0>         0.1226
     29 N3          9.2102  -15.4321    1.7537 N.ar      1 <0>        -0.4746
     30 C24         8.8217  -14.1718    1.7665 C.ar      1 <0>         0.1175
     31 O2          8.3500  -11.5205    2.5089 O.3       1 <0>        -0.5451
     32 H2         -0.9605    1.9041    0.0260 H         1 <0>         0.1316
     33 H3          1.1470    3.1730    0.0082 H         1 <0>         0.1346
     34 H4          3.3018    1.9873   -0.0200 H         1 <0>         0.1280
     35 H5          1.2177   -1.7605   -0.0191 H         1 <0>         0.1335
     36 H6         -0.9265   -0.5556    0.0083 H         1 <0>         0.1326
     37 H7          7.2789   -1.7955   -0.0773 H         1 <0>         0.2019
     38 H8          7.5370   -3.7445   -0.0878 H         1 <0>         0.1381
     39 H9          7.9237   -6.1731   -0.1143 H         1 <0>         0.1376
     40 H10         3.7037   -6.8541   -0.1107 H         1 <0>         0.1302
     41 H11         3.3068   -4.4273   -0.0727 H         1 <0>         0.1408
     42 H12         4.3065   -8.6566    0.7599 H         1 <0>         0.0887
     43 H13         4.3016   -8.6379   -1.0199 H         1 <0>         0.1118
     44 H14         4.4637  -10.9542   -0.2442 H         1 <0>         0.1524
     45 H15         6.0068  -10.4828   -0.9958 H         1 <0>         0.1439
     46 H16         6.8562  -10.0335    1.1867 H         1 <0>         0.4395
     47 H17         5.5904  -12.6752    0.9899 H         1 <0>         0.1457
     48 H18         7.1336  -12.2038    0.2384 H         1 <0>         0.1390
     49 H19         5.9072  -14.5243    3.4292 H         1 <0>         0.1410
     50 H20         6.6900  -16.8828    3.3612 H         1 <0>         0.1472
     51 H21         8.8316  -17.4090    2.2648 H         1 <0>         0.1673
     52 H22         9.4414  -13.4175    1.3046 H         1 <0>         0.1533
     53 H23         8.9882  -11.6188    1.7891 H         1 <0>         0.3903
     54 H24         5.4278  -10.4698    1.8824 H         1 <0>         0.4292
@<TRIPOS>BOND
     1    1    6 ar
     2    1    2 ar
     3    1   32 1
     4    2    3 ar
     5    2   33 1
     6    3    4 ar
     7    3   34 1
     8    4    5 ar
     9    4    7 1
    10    5    6 ar
    11    5   35 1
    12    6   36 1
    13    7   11 1
    14    7    8 2
    15    8    9 1
    16    9   10 2
    17    9   12 1
    18   10   11 1
    19   10   37 1
    20   12   17 ar
    21   12   13 ar
    22   13   14 ar
    23   13   38 1
    24   14   15 ar
    25   14   39 1
    26   15   16 ar
    27   15   18 1
    28   16   17 ar
    29   16   40 1
    30   17   41 1
    31   18   19 1
    32   19   20 1
    33   19   42 1
    34   19   43 1
    35   20   21 1
    36   20   44 1
    37   20   45 1
    38   21   22 1
    39   21   46 1
    40   21   54 1
    41   22   23 1
    42   22   47 1
    43   22   48 1
    44   23   24 1
    45   23   25 1
    46   23   31 1
    47   25   30 ar
    48   25   26 ar
    49   26   27 ar
    50   26   49 1
    51   27   28 ar
    52   27   50 1
    53   28   29 ar
    54   28   51 1
    55   29   30 ar
    56   30   52 1
    57   31   53 1
@<TRIPOS>MOLECULE
CHEMBL250144
   53    56     0     0     0
SMALL
USER_CHARGES

@<TRIPOS>ATOM
      1 C1         -0.0167    1.3793    0.0096 C.ar      1 <0>        -0.0985
      2 C2          1.1684    2.0933    0.0021 C.ar      1 <0>        -0.1178
      3 C3          2.3774    1.4289   -0.0134 C.ar      1 <0>        -0.0909
      4 C4          2.4033    0.0336   -0.0212 C.ar      1 <0>        -0.0203
      5 C5          1.2044   -0.6806   -0.0131 C.ar      1 <0>        -0.0696
      6 C6          0.0021   -0.0041    0.0020 C.ar      1 <0>        -0.1206
      7 C7          3.6955   -0.6850   -0.0384 C.2       1 <0>         0.1631
      8 N1          3.9294   -1.9877   -0.0532 N.2       1 <0>        -0.4927
      9 C8          5.1601   -2.4633   -0.0675 C.2       1 <0>         0.1101
     10 C9          6.2183   -1.5920   -0.0670 C.2       1 <0>        -0.2003
     11 S1          5.3567   -0.0250   -0.0526 S.3       1 <0>         0.0196
     12 C10         5.3964   -3.9280   -0.0835 C.ar      1 <0>        -0.0675
     13 C11         6.6985   -4.4251   -0.0923 C.ar      1 <0>        -0.0627
     14 C12         6.9150   -5.7873   -0.1071 C.ar      1 <0>        -0.1514
     15 C13         5.8377   -6.6627   -0.1134 C.ar      1 <0>         0.1425
     16 C14         4.5398   -6.1706   -0.1051 C.ar      1 <0>        -0.2102
     17 C15         4.3169   -4.8095   -0.0840 C.ar      1 <0>        -0.0427
     18 O1          6.0542   -8.0043   -0.1281 O.3       1 <0>        -0.3150
     19 C16         4.9006   -8.8476   -0.1337 C.3       1 <0>         0.0582
     20 C17         5.3401  -10.3130   -0.1503 C.3       1 <0>         0.0617
     21 N2          6.0449  -10.6270    1.0998 N.3       1 <0>        -0.6844
     22 C18         6.4827  -12.0291    1.1194 C.3       1 <0>         0.0317
     23 C19         7.2109  -12.3177    2.4336 C.3       1 <0>         0.1562
     24 H1          6.5364  -12.1359    3.2703 H         1 <0>         0.1193
     25 C20         7.6601  -13.7560    2.4538 C.ar      1 <0>        -0.1714
     26 C21         6.8755  -14.7282    3.0556 C.ar      1 <0>        -0.0634
     27 C22         7.3286  -16.0384    3.0502 C.ar      1 <0>        -0.1686
     28 C23         8.5388  -16.3300    2.4494 C.ar      1 <0>         0.0995
     29 N3          9.2589  -15.3795    1.8868 N.ar      1 <0>        -0.4807
     30 C24         8.8563  -14.1237    1.8677 C.ar      1 <0>         0.1071
     31 O2          8.3496  -11.4615    2.5452 O.3       1 <0>        -0.5480
     32 H2         -0.9605    1.9041    0.0260 H         1 <0>         0.1294
     33 H3          1.1470    3.1730    0.0082 H         1 <0>         0.1322
     34 H4          3.3018    1.9873   -0.0200 H         1 <0>         0.1273
     35 H5          1.2177   -1.7605   -0.0191 H         1 <0>         0.1353
     36 H6         -0.9265   -0.5556    0.0083 H         1 <0>         0.1317
     37 H7          7.2789   -1.7955   -0.0773 H         1 <0>         0.2012
     38 H8          7.5370   -3.7445   -0.0878 H         1 <0>         0.1315
     39 H9          7.9237   -6.1731   -0.1143 H         1 <0>         0.1349
     40 H10         3.7037   -6.8541   -0.1107 H         1 <0>         0.1308
     41 H11         3.3068   -4.4273   -0.0727 H         1 <0>         0.1348
     42 H12         4.3065   -8.6566    0.7599 H         1 <0>         0.0754
     43 H13         4.3016   -8.6379   -1.0199 H         1 <0>         0.0696
     44 H14         4.4637  -10.9542   -0.2442 H         1 <0>         0.0935
     45 H15         6.0068  -10.4828   -0.9958 H         1 <0>         0.0428
     46 H16         6.8247  -10.0027    1.2419 H         1 <0>         0.3578
     47 H17         5.6142  -12.6822    1.0343 H         1 <0>         0.0840
     48 H18         7.1573  -12.2108    0.2827 H         1 <0>         0.0366
     49 H19         5.9340  -14.4708    3.5179 H         1 <0>         0.1379
     50 H20         6.7436  -16.8212    3.5100 H         1 <0>         0.1389
     51 H21         8.8988  -17.3482    2.4409 H         1 <0>         0.1584
     52 H22         9.4708  -13.3733    1.3927 H         1 <0>         0.1509
     53 H23         8.9940  -11.5692    1.8323 H         1 <0>         0.3728
@<TRIPOS>BOND
     1    1    6 ar
     2    1    2 ar
     3    1   32 1
     4    2    3 ar
     5    2   33 1
     6    3    4 ar
     7    3   34 1
     8    4    5 ar
     9    4    7 1
    10    5    6 ar
    11    5   35 1
    12    6   36 1
    13    7   11 1
    14    7    8 2
    15    8    9 1
    16    9   10 2
    17    9   12 1
    18   10   11 1
    19   10   37 1
    20   12   17 ar
    21   12   13 ar
    22   13   14 ar
    23   13   38 1
    24   14   15 ar
    25   14   39 1
    26   15   16 ar
    27   15   18 1
    28   16   17 ar
    29   16   40 1
    30   17   41 1
    31   18   19 1
    32   19   20 1
    33   19   42 1
    34   19   43 1
    35   20   21 1
    36   20   44 1
    37   20   45 1
    38   21   22 1
    39   21   46 1
    40   22   23 1
    41   22   47 1
    42   22   48 1
    43   23   24 1
    44   23   25 1
    45   23   31 1
    46   25   30 ar
    47   25   26 ar
    48   26   27 ar
    49   26   49 1
    50   27   28 ar
    51   27   50 1
    52   28   29 ar
    53   28   51 1
    54   29   30 ar
    55   30   52 1
    56   31   53 1
@<TRIPOS>MOLECULE
CHEMBL249336
   44    46     0     0     0
SMALL
USER_CHARGES

@<TRIPOS>ATOM
      1 C1         -0.0167    1.3776    0.0096 C.ar      1 <0>        -0.1643
      2 C2          1.1849    2.0698    0.0019 C.ar      1 <0>        -0.0547
      3 C3          2.3651    1.3426   -0.0133 C.ar      1 <0>        -0.2006
      4 C4          2.3054   -0.0383   -0.0202 C.ar      1 <0>         0.1178
      5 N1          1.1443   -0.6632   -0.0129 N.ar      1 <0>        -0.4747
      6 C5          0.0021   -0.0041    0.0020 C.ar      1 <0>         0.1224
      7 C6          3.6964    2.0488   -0.0227 C.3       1 <0>         0.1416
      8 H1          3.5852    3.0397    0.4177 H         1 <0>         0.1337
      9 C7          4.1918    2.1840   -1.4640 C.3       1 <0>        -0.0435
     10 N2          5.4895    2.8724   -1.4731 N.4       1 <0>        -0.5061
     11 C8          5.9652    3.0022   -2.8569 C.3       1 <0>         0.0006
     12 C9          7.3168    3.7191   -2.8665 C.3       1 <0>         0.0240
     13 O1          8.2908    2.9082   -2.2064 O.3       1 <0>        -0.3278
     14 C10         9.5541    3.4029   -2.1272 C.ar      1 <0>         0.1153
     15 C11         9.8462    4.6468   -2.6697 C.ar      1 <0>        -0.1998
     16 C12        11.1275    5.1515   -2.5909 C.ar      1 <0>        -0.0498
     17 C13        12.1292    4.4113   -1.9657 C.ar      1 <0>        -0.0274
     18 C14        11.8329    3.1628   -1.4220 C.ar      1 <0>        -0.0679
     19 C15        10.5485    2.6659   -1.4989 C.ar      1 <0>        -0.1359
     20 C16        13.5088    4.9513   -1.8796 C.2       1 <0>         0.0137
     21 C17        14.5756    4.3409   -1.3085 C.2       1 <0>        -0.0500
     22 O2         15.6258    5.1727   -1.4495 O.3       1 <0>        -0.1971
     23 C18        15.2021    6.2676   -2.0948 C.2       1 <0>         0.1885
     24 N3         13.9349    6.1403   -2.3616 N.2       1 <0>        -0.4846
     25 O3          4.6418    1.2932    0.7371 O.3       1 <0>        -0.5451
     26 H2         -0.9552    1.9117    0.0259 H         1 <0>         0.1473
     27 H3          1.2009    3.1496    0.0072 H         1 <0>         0.1411
     28 H4          3.2203   -0.6121   -0.0320 H         1 <0>         0.1534
     29 H5         -0.9294   -0.5505    0.0083 H         1 <0>         0.1672
     30 H6          4.3030    1.1932   -1.9044 H         1 <0>         0.1390
     31 H7          3.4707    2.7604   -2.0435 H         1 <0>         0.1457
     32 H8          5.3866    3.7896   -1.0655 H         1 <0>         0.4292
     33 H9          6.0764    2.0113   -3.2973 H         1 <0>         0.1440
     34 H10         5.2440    3.5785   -3.4365 H         1 <0>         0.1526
     35 H11         7.6277    3.8946   -3.8964 H         1 <0>         0.1122
     36 H12         7.2257    4.6730   -2.3469 H         1 <0>         0.0890
     37 H13         9.0696    5.2198   -3.1544 H         1 <0>         0.1314
     38 H14        11.3542    6.1191   -3.0135 H         1 <0>         0.1403
     39 H15        12.6072    2.5868   -0.9372 H         1 <0>         0.1377
     40 H16        10.3172    1.7003   -1.0738 H         1 <0>         0.1387
     41 H17        14.5824    3.3721   -0.8313 H         1 <0>         0.2185
     42 H18        15.8150    7.1178   -2.3555 H         1 <0>         0.2549
     43 H19         4.7910    0.3986    0.4015 H         1 <0>         0.3904
     44 H20         6.1570    2.3389   -0.9367 H         1 <0>         0.4395
@<TRIPOS>BOND
     1    1    6 ar
     2    1    2 ar
     3    1   26 1
     4    2    3 ar
     5    2   27 1
     6    3    4 ar
     7    3    7 1
     8    4    5 ar
     9    4   28 1
    10    5    6 ar
    11    6   29 1
    12    7    8 1
    13    7    9 1
    14    7   25 1
    15    9   10 1
    16    9   30 1
    17    9   31 1
    18   10   11 1
    19   10   32 1
    20   10   44 1
    21   11   12 1
    22   11   33 1
    23   11   34 1
    24   12   13 1
    25   12   35 1
    26   12   36 1
    27   13   14 1
    28   14   19 ar
    29   14   15 ar
    30   15   16 ar
    31   15   37 1
    32   16   17 ar
    33   16   38 1
    34   17   18 ar
    35   17   20 1
    36   18   19 ar
    37   18   39 1
    38   19   40 1
    39   20   24 1
    40   20   21 2
    41   21   22 1
    42   21   41 1
    43   22   23 1
    44   23   24 2
    45   23   42 1
    46   25   43 1
@<TRIPOS>MOLECULE
CHEMBL249336
   43    45     0     0     0
SMALL
USER_CHARGES

@<TRIPOS>ATOM
      1 C1         -0.0167    1.3776    0.0096 C.ar      1 <0>        -0.1693
      2 C2          1.1849    2.0698    0.0019 C.ar      1 <0>        -0.0658
      3 C3          2.3651    1.3426   -0.0133 C.ar      1 <0>        -0.1722
      4 C4          2.3054   -0.0383   -0.0202 C.ar      1 <0>         0.1097
      5 N1          1.1443   -0.6632   -0.0129 N.ar      1 <0>        -0.4803
      6 C5          0.0021   -0.0041    0.0020 C.ar      1 <0>         0.0994
      7 C6          3.6964    2.0488   -0.0227 C.3       1 <0>         0.1587
      8 H1          3.5852    3.0397    0.4177 H         1 <0>         0.1072
      9 C7          4.1918    2.1840   -1.4640 C.3       1 <0>         0.0314
     10 N2          5.4895    2.8724   -1.4731 N.3       1 <0>        -0.6728
     11 C8          5.9972    3.0204   -2.8436 C.3       1 <0>         0.0593
     12 C9          7.3471    3.7400   -2.8125 C.3       1 <0>         0.0616
     13 O1          8.3071    2.9228   -2.1399 O.3       1 <0>        -0.2945
     14 C10         9.5672    3.4190   -2.0248 C.ar      1 <0>         0.1406
     15 C11         9.8691    4.6700   -2.5448 C.ar      1 <0>        -0.2121
     16 C12        11.1471    5.1762   -2.4296 C.ar      1 <0>        -0.0471
     17 C13        12.1355    4.4302   -1.7903 C.ar      1 <0>        -0.0580
     18 C14        11.8293    3.1745   -1.2693 C.ar      1 <0>        -0.0655
     19 C15        10.5481    2.6760   -1.3826 C.ar      1 <0>        -0.1482
     20 C16        13.5115    4.9717   -1.6651 C.2       1 <0>         0.0323
     21 C17        14.5659    4.3564   -1.0768 C.2       1 <0>        -0.0645
     22 O2         15.6173    5.1919   -1.1826 O.3       1 <0>        -0.2022
     23 C18        15.2064    6.2939   -1.8240 C.2       1 <0>         0.1783
     24 N3         13.9461    6.1675   -2.1221 N.2       1 <0>        -0.4839
     25 O3          4.6418    1.2932    0.7371 O.3       1 <0>        -0.5372
     26 H2         -0.9552    1.9117    0.0259 H         1 <0>         0.1383
     27 H3          1.2009    3.1496    0.0072 H         1 <0>         0.1354
     28 H4          3.2203   -0.6121   -0.0320 H         1 <0>         0.1535
     29 H5         -0.9294   -0.5505    0.0083 H         1 <0>         0.1583
     30 H6          4.3030    1.1932   -1.9044 H         1 <0>         0.0799
     31 H7          3.4707    2.7604   -2.0435 H         1 <0>         0.0408
     32 H8          5.4272    3.7677   -1.0120 H         1 <0>         0.3431
     33 H9          6.1210    2.0353   -3.2936 H         1 <0>         0.0863
     34 H10         5.2886    3.6025   -3.4328 H         1 <0>         0.0531
     35 H11         7.6817    3.9289   -3.8325 H         1 <0>         0.0695
     36 H12         7.2417    4.6872   -2.2834 H         1 <0>         0.0634
     37 H13         9.1028    5.2475   -3.0404 H         1 <0>         0.1295
     38 H14        11.3815    6.1495   -2.8347 H         1 <0>         0.1330
     39 H15        12.5933    2.5939   -0.7737 H         1 <0>         0.1304
     40 H16        10.3091    1.7048   -0.9751 H         1 <0>         0.1367
     41 H17        14.5637    3.3817   -0.6116 H         1 <0>         0.2174
     42 H18        15.8234    7.1485   -2.0597 H         1 <0>         0.2515
     43 H19         4.7910    0.3986    0.4015 H         1 <0>         0.3751
@<TRIPOS>BOND
     1    1    6 ar
     2    1    2 ar
     3    1   26 1
     4    2    3 ar
     5    2   27 1
     6    3    4 ar
     7    3    7 1
     8    4    5 ar
     9    4   28 1
    10    5    6 ar
    11    6   29 1
    12    7    8 1
    13    7    9 1
    14    7   25 1
    15    9   10 1
    16    9   30 1
    17    9   31 1
    18   10   11 1
    19   10   32 1
    20   11   12 1
    21   11   33 1
    22   11   34 1
    23   12   13 1
    24   12   35 1
    25   12   36 1
    26   13   14 1
    27   14   19 ar
    28   14   15 ar
    29   15   16 ar
    30   15   37 1
    31   16   17 ar
    32   16   38 1
    33   17   18 ar
    34   17   20 1
    35   18   19 ar
    36   18   39 1
    37   19   40 1
    38   20   24 1
    39   20   21 2
    40   21   22 1
    41   21   41 1
    42   22   23 1
    43   23   24 2
    44   23   42 1
    45   25   43 1
@<TRIPOS>MOLECULE
CHEMBL39706
   37    36     0     0     0
SMALL
USER_CHARGES

@<TRIPOS>ATOM
      1 C1         -0.0187    1.5258    0.0104 C.3       1 <0>        -0.1510
      2 C2          0.0021   -0.0041    0.0020 C.3       1 <0>        -0.1222
      3 C3          0.7182   -0.4975   -1.2568 C.3       1 <0>         0.0708
      4 O1          0.7376   -1.9263   -1.2646 O.3       1 <0>        -0.2257
      5 N1          1.3814   -2.4874   -2.3941 N.2       1 <0>        -0.3020
      6 C4          1.4644   -3.7583   -2.5176 C.2       1 <0>         0.0430
      7 C5          2.1496   -4.3554   -3.7197 C.3       1 <0>         0.1464
      8 C6          3.3339   -5.2083   -3.2604 C.3       1 <0>        -0.0500
      9 N2          4.0018   -5.7903   -4.4321 N.4       1 <0>        -0.4982
     10 C7          5.1389   -6.6092   -3.9911 C.3       1 <0>         0.0556
     11 C8          4.6364   -7.7315   -3.0807 C.3       1 <0>        -0.1798
     12 C9          5.8345   -7.2154   -5.2116 C.3       1 <0>        -0.1775
     13 C10         6.1300   -5.7336   -3.2218 C.3       1 <0>        -0.1799
     14 O2          2.6189   -3.3072   -4.5700 O.3       1 <0>        -0.5413
     15 H1          1.0039    1.9031    0.0027 H         1 <0>         0.0593
     16 H2         -0.5459    1.8868   -0.8726 H         1 <0>         0.0601
     17 H3         -0.5289    1.8773    0.9072 H         1 <0>         0.0692
     18 H4          0.5293   -0.3651    0.8851 H         1 <0>         0.0730
     19 H5         -1.0205   -0.3814    0.0098 H         1 <0>         0.0741
     20 H6          0.1910   -0.1364   -2.1398 H         1 <0>         0.0639
     21 H7          1.7408   -0.1202   -1.2645 H         1 <0>         0.0619
     22 H8          1.0434   -4.4030   -1.7603 H         1 <0>         0.1356
     23 H9          1.4435   -4.9792   -4.2678 H         1 <0>         0.1476
     24 H10         4.0400   -4.5844   -2.7123 H         1 <0>         0.1412
     25 H11         2.9759   -6.0078   -2.6118 H         1 <0>         0.1514
     26 H12         3.3482   -6.3678   -4.9395 H         1 <0>         0.4290
     27 H13         3.9303   -8.3553   -3.6288 H         1 <0>         0.0843
     28 H14         5.4801   -8.3391   -2.7535 H         1 <0>         0.1068
     29 H15         4.1408   -7.2996   -2.2112 H         1 <0>         0.0820
     30 H16         6.1925   -6.4159   -5.8602 H         1 <0>         0.0832
     31 H17         6.6782   -7.8230   -4.8843 H         1 <0>         0.1073
     32 H18         5.1284   -7.8392   -5.7596 H         1 <0>         0.0835
     33 H19         5.6344   -5.3017   -2.3523 H         1 <0>         0.0809
     34 H20         6.9737   -6.3412   -2.8946 H         1 <0>         0.1071
     35 H21         6.4879   -4.9340   -3.8704 H         1 <0>         0.0833
     36 H22         3.2525   -2.7115   -4.1471 H         1 <0>         0.3953
     37 H23         4.3332   -5.0502   -5.0325 H         1 <0>         0.4317
@<TRIPOS>BOND
     1    1    2 1
     2    1   15 1
     3    1   16 1
     4    1   17 1
     5    2    3 1
     6    2   18 1
     7    2   19 1
     8    3    4 1
     9    3   20 1
    10    3   21 1
    11    4    5 1
    12    5    6 2
    13    6    7 1
    14    6   22 1
    15    7    8 1
    16    7   14 1
    17    7   23 1
    18    8    9 1
    19    8   24 1
    20    8   25 1
    21    9   10 1
    22    9   26 1
    23    9   37 1
    24   10   11 1
    25   10   12 1
    26   10   13 1
    27   11   27 1
    28   11   28 1
    29   11   29 1
    30   12   30 1
    31   12   31 1
    32   12   32 1
    33   13   33 1
    34   13   34 1
    35   13   35 1
    36   14   36 1
@<TRIPOS>MOLECULE
CHEMBL39706
   37    36     0     0     0
SMALL
USER_CHARGES

@<TRIPOS>ATOM
      1 C1         -0.0187    1.5258    0.0104 C.3       1 <0>        -0.1510
      2 C2          0.0021   -0.0041    0.0020 C.3       1 <0>        -0.1221
      3 C3          0.7182   -0.4975   -1.2568 C.3       1 <0>         0.0707
      4 O1          0.7376   -1.9263   -1.2646 O.3       1 <0>        -0.2257
      5 N1          1.3814   -2.4874   -2.3941 N.2       1 <0>        -0.3016
      6 C4          1.4644   -3.7583   -2.5176 C.2       1 <0>         0.0427
      7 C5          2.1496   -4.3554   -3.7197 C.3       1 <0>         0.1465
      8 C6          1.1585   -5.2310   -4.4890 C.3       1 <0>        -0.0497
      9 N2          1.8556   -5.9073   -5.5911 N.4       1 <0>        -0.4988
     10 C7          0.9040   -6.7481   -6.3298 C.3       1 <0>         0.0556
     11 C8         -0.2167   -5.8736   -6.8955 C.3       1 <0>        -0.1798
     12 C9          1.6301   -7.4525   -7.4776 C.3       1 <0>        -0.1775
     13 C10         0.3076   -7.7938   -5.3855 C.3       1 <0>        -0.1798
     14 O2          2.6189   -3.3072   -4.5700 O.3       1 <0>        -0.5406
     15 H1          1.0039    1.9031    0.0027 H         1 <0>         0.0602
     16 H2         -0.5459    1.8868   -0.8726 H         1 <0>         0.0593
     17 H3         -0.5289    1.8773    0.9072 H         1 <0>         0.0692
     18 H4          0.5293   -0.3651    0.8851 H         1 <0>         0.0741
     19 H5         -1.0205   -0.3814    0.0098 H         1 <0>         0.0730
     20 H6          0.1910   -0.1364   -2.1398 H         1 <0>         0.0620
     21 H7          1.7408   -0.1202   -1.2645 H         1 <0>         0.0639
     22 H8          1.0434   -4.4030   -1.7603 H         1 <0>         0.1354
     23 H9          2.9933   -4.9630   -3.3925 H         1 <0>         0.1467
     24 H10         0.7336   -5.9760   -3.8163 H         1 <0>         0.1508
     25 H11         0.3601   -4.6080   -4.8921 H         1 <0>         0.1417
     26 H12         2.2489   -5.2177   -6.2138 H         1 <0>         0.4322
     27 H13         0.2082   -5.1286   -7.5683 H         1 <0>         0.0835
     28 H14        -0.9228   -6.4974   -7.4436 H         1 <0>         0.1070
     29 H15        -0.7340   -5.3717   -6.0778 H         1 <0>         0.0809
     30 H16         2.4285   -8.0755   -7.0745 H         1 <0>         0.0835
     31 H17         0.9240   -8.0763   -8.0257 H         1 <0>         0.1073
     32 H18         2.0550   -6.7075   -8.1503 H         1 <0>         0.0832
     33 H19        -0.2096   -7.2919   -4.5677 H         1 <0>         0.0819
     34 H20        -0.3985   -8.4176   -5.9336 H         1 <0>         0.1068
     35 H21         1.1060   -8.4168   -4.9824 H         1 <0>         0.0842
     36 H22         1.9203   -2.7254   -4.8995 H         1 <0>         0.3957
     37 H23         2.5947   -6.4841   -5.2180 H         1 <0>         0.4287
@<TRIPOS>BOND
     1    1    2 1
     2    1   15 1
     3    1   16 1
     4    1   17 1
     5    2    3 1
     6    2   18 1
     7    2   19 1
     8    3    4 1
     9    3   20 1
    10    3   21 1
    11    4    5 1
    12    5    6 2
    13    6    7 1
    14    6   22 1
    15    7    8 1
    16    7   14 1
    17    7   23 1
    18    8    9 1
    19    8   24 1
    20    8   25 1
    21    9   10 1
    22    9   26 1
    23    9   37 1
    24   10   11 1
    25   10   12 1
    26   10   13 1
    27   11   27 1
    28   11   28 1
    29   11   29 1
    30   12   30 1
    31   12   31 1
    32   12   32 1
    33   13   33 1
    34   13   34 1
    35   13   35 1
    36   14   36 1
@<TRIPOS>MOLECULE
CHEMBL22317
   84    88     0     0     0
SMALL
USER_CHARGES

@<TRIPOS>ATOM
      1 C1         16.4861   14.5158   -8.7558 C.ar      1 <0>        -0.1641
      2 C2         16.6376   13.1379   -8.7910 C.ar      1 <0>        -0.0545
      3 C3         16.5072   12.4293   -7.6066 C.ar      1 <0>        -0.2003
      4 C4         16.2323   13.1150   -6.4383 C.ar      1 <0>         0.1174
      5 N1         16.0942   14.4262   -6.4424 N.ar      1 <0>        -0.4749
      6 C5         16.2120   15.1325   -7.5500 C.ar      1 <0>         0.1220
      7 C6         16.6626   10.9304   -7.5932 C.3       1 <0>         0.1412
      8 H1         17.2838   10.6219   -8.4341 H         1 <0>         0.1342
      9 C7         15.2855   10.2738   -7.7085 C.3       1 <0>        -0.0424
     10 N2         15.4370    8.8127   -7.6954 N.4       1 <0>        -0.5059
     11 C8         14.1147    8.1823   -7.8061 C.3       1 <0>        -0.0084
     12 C9         14.2725    6.6605   -7.7924 C.3       1 <0>        -0.0992
     13 C10        12.9161    6.0138   -7.9060 C.ar      1 <0>        -0.1210
     14 C11        12.1925    5.7233   -6.7640 C.ar      1 <0>        -0.0885
     15 C12        10.9491    5.1307   -6.8645 C.ar      1 <0>        -0.1256
     16 C13        10.4255    4.8264   -8.1146 C.ar      1 <0>         0.1686
     17 C14        11.1550    5.1196   -9.2598 C.ar      1 <0>        -0.1497
     18 C15        12.3953    5.7174   -9.1523 C.ar      1 <0>        -0.0831
     19 N3          9.1685    4.2266   -8.2199 N.pl3     1 <0>        -1.0610
     20 S1          8.0663    4.8004   -9.3146 S.o2      1 <0>         2.6899
     21 O1          8.7259    4.8394  -10.5726 O.2       1 <0>        -0.9477
     22 O2          6.8670    4.0675   -9.1056 O.2       1 <0>        -0.9405
     23 C16         7.7183    6.4712   -8.8765 C.ar      1 <0>        -0.7080
     24 C17         6.7630    6.7479   -7.9157 C.ar      1 <0>         0.0175
     25 C18         6.4882    8.0565   -7.5698 C.ar      1 <0>        -0.1763
     26 C19         7.1725    9.0948   -8.1879 C.ar      1 <0>         0.2564
     27 C20         8.1312    8.8137   -9.1523 C.ar      1 <0>        -0.1866
     28 C21         8.4051    7.5027   -9.4900 C.ar      1 <0>         0.0139
     29 N4          6.8960   10.4218   -7.8399 N.am      1 <0>        -0.5744
     30 C22         7.6245   11.6010   -8.3312 C.3       1 <0>         0.0856
     31 C23         6.9179   12.7849   -7.6428 C.3       1 <0>         0.0906
     32 N5          5.8664   12.1471   -6.8366 N.am      1 <0>        -0.6233
     33 C24         5.9222   10.8201   -7.0109 C.2       1 <0>         0.6977
     34 O3          5.1604   10.0469   -6.4631 O.2       1 <0>        -0.5518
     35 C25         4.9062   12.8515   -5.9834 C.3       1 <0>         0.1476
     36 C26         3.6583   13.1979   -6.7981 C.3       1 <0>        -0.1382
     37 C27         2.6555   13.9336   -5.9070 C.3       1 <0>        -0.1089
     38 C28         1.4076   14.2801   -6.7216 C.3       1 <0>        -0.0925
     39 C29         1.7513   15.3377   -7.7908 C.3       1 <0>        -0.1189
     40 C30         0.4984   16.2468   -7.8423 C.3       1 <0>        -0.1280
     41 C31         0.0722   16.3261   -6.3553 C.3       1 <0>        -0.1260
     42 C32         0.3400   14.9085   -5.8090 C.3       1 <0>        -0.1228
     43 O4         17.2819   10.5267   -6.3702 O.3       1 <0>        -0.5456
     44 H2         16.5854   15.1001   -9.6587 H         1 <0>         0.1473
     45 H3         16.8519   12.6288   -9.7191 H         1 <0>         0.1413
     46 H4         16.1292   12.5703   -5.5114 H         1 <0>         0.1527
     47 H5         16.0929   16.2053   -7.5141 H         1 <0>         0.1670
     48 H6         14.6643   10.5823   -6.8676 H         1 <0>         0.1370
     49 H7         14.8131   10.5818   -8.6413 H         1 <0>         0.1446
     50 H8         16.0119    8.5272   -8.4738 H         1 <0>         0.4302
     51 H9         13.4936    8.4908   -6.9652 H         1 <0>         0.1330
     52 H10        13.6424    8.4903   -8.7389 H         1 <0>         0.1344
     53 H11        14.8937    6.3521   -8.6333 H         1 <0>         0.0980
     54 H12        14.7448    6.3526   -6.8596 H         1 <0>         0.0972
     55 H13        12.6004    5.9598   -5.7923 H         1 <0>         0.1294
     56 H14        10.3847    4.9037   -5.9721 H         1 <0>         0.1357
     57 H15        10.7510    4.8840  -10.2333 H         1 <0>         0.1624
     58 H16        12.9611    5.9497  -10.0425 H         1 <0>         0.1324
     59 H17         8.9412    3.4740   -7.6518 H         1 <0>         0.4320
     60 H18         6.2309    5.9399   -7.4357 H         1 <0>         0.1450
     61 H19         5.7417    8.2720   -6.8196 H         1 <0>         0.1695
     62 H20         8.6651    9.6190   -9.6347 H         1 <0>         0.1339
     63 H21         9.1538    7.2832  -10.2367 H         1 <0>         0.1438
     64 H22         8.6721   11.5550   -8.0334 H         1 <0>         0.0916
     65 H23         7.5369   11.6808   -9.4148 H         1 <0>         0.0954
     66 H24         7.6146   13.3267   -7.0031 H         1 <0>         0.0905
     67 H25         6.4795   13.4525   -8.3844 H         1 <0>         0.0916
     68 H26         4.6273   12.2123   -5.1457 H         1 <0>         0.0886
     69 H27         5.3596   13.7680   -5.6059 H         1 <0>         0.0856
     70 H28         3.9372   13.8371   -7.6358 H         1 <0>         0.0662
     71 H29         3.2048   12.2814   -7.1756 H         1 <0>         0.0679
     72 H30         2.3766   13.2944   -5.0693 H         1 <0>         0.0661
     73 H31         3.1089   14.8501   -5.5294 H         1 <0>         0.0657
     74 H32         1.0113   13.3828   -7.1969 H         1 <0>         0.0709
     75 H33         2.6276   15.9125   -7.4909 H         1 <0>         0.0651
     76 H34         1.9180   14.8627   -8.7576 H         1 <0>         0.0612
     77 H35         0.7538   17.2353   -8.2242 H         1 <0>         0.0653
     78 H36        -0.2862   15.7895   -8.4452 H         1 <0>         0.0664
     79 H37         0.6773   17.0604   -5.8237 H         1 <0>         0.0644
     80 H38        -0.9866   16.5723   -6.2745 H         1 <0>         0.0649
     81 H39        -0.5748   14.3166   -5.8420 H         1 <0>         0.0635
     82 H40         0.7108   14.9666   -4.7856 H         1 <0>         0.0649
     83 H41        16.7830   10.7690   -5.5781 H         1 <0>         0.3898
     84 H42        15.8742    8.5277   -6.8319 H         1 <0>         0.4328
@<TRIPOS>BOND
     1    1    6 ar
     2    1    2 ar
     3    1   44 1
     4    2    3 ar
     5    2   45 1
     6    3    4 ar
     7    3    7 1
     8    4    5 ar
     9    4   46 1
    10    5    6 ar
    11    6   47 1
    12    7    8 1
    13    7    9 1
    14    7   43 1
    15    9   10 1
    16    9   48 1
    17    9   49 1
    18   10   11 1
    19   10   50 1
    20   10   84 1
    21   11   12 1
    22   11   51 1
    23   11   52 1
    24   12   13 1
    25   12   53 1
    26   12   54 1
    27   13   18 ar
    28   13   14 ar
    29   14   15 ar
    30   14   55 1
    31   15   16 ar
    32   15   56 1
    33   16   17 ar
    34   16   19 1
    35   17   18 ar
    36   17   57 1
    37   18   58 1
    38   19   20 1
    39   19   59 1
    40   20   21 2
    41   20   22 2
    42   20   23 1
    43   23   28 ar
    44   23   24 ar
    45   24   25 ar
    46   24   60 1
    47   25   26 ar
    48   25   61 1
    49   26   27 ar
    50   26   29 1
    51   27   28 ar
    52   27   62 1
    53   28   63 1
    54   29   33 am
    55   29   30 1
    56   30   31 1
    57   30   64 1
    58   30   65 1
    59   31   32 1
    60   31   66 1
    61   31   67 1
    62   32   33 am
    63   32   35 1
    64   33   34 2
    65   35   36 1
    66   35   68 1
    67   35   69 1
    68   36   37 1
    69   36   70 1
    70   36   71 1
    71   37   38 1
    72   37   72 1
    73   37   73 1
    74   38   42 1
    75   38   39 1
    76   38   74 1
    77   39   40 1
    78   39   75 1
    79   39   76 1
    80   40   41 1
    81   40   77 1
    82   40   78 1
    83   41   42 1
    84   41   79 1
    85   41   80 1
    86   42   81 1
    87   42   82 1
    88   43   83 1
@<TRIPOS>MOLECULE
CHEMBL22317
   83    87     0     0     0
SMALL
USER_CHARGES

@<TRIPOS>ATOM
      1 C1         -0.0776    1.4308   -0.0252 C.ar      1 <0>        -0.1654
      2 C2          1.1319    2.1090   -0.0275 C.ar      1 <0>        -0.0550
      3 C3          2.3036    1.3683   -0.0450 C.ar      1 <0>        -0.1951
      4 C4          2.2278   -0.0118   -0.0594 C.ar      1 <0>         0.1171
      5 N1          1.0596   -0.6232   -0.0571 N.ar      1 <0>        -0.4762
      6 C5         -0.0749    0.0490   -0.0402 C.ar      1 <0>         0.1182
      7 C6          3.6430    2.0590   -0.0488 C.3       1 <0>         0.1402
      8 H1          3.5426    3.0487    0.3968 H         1 <0>         0.1328
      9 C7          4.1420    2.1962   -1.4886 C.3       1 <0>        -0.0425
     10 N2          5.4476    2.8695   -1.4923 N.4       1 <0>        -0.5054
     11 C8          5.9267    3.0012   -2.8747 C.3       1 <0>        -0.0113
     12 C9          7.2866    3.7025   -2.8785 C.3       1 <0>        -0.0705
     13 C10         7.7781    3.8376   -4.2967 C.ar      1 <0>        -0.2381
     14 C11         8.5464    2.8347   -4.8590 C.ar      1 <0>        -0.0637
     15 C12         8.9985    2.9553   -6.1583 C.ar      1 <0>        -0.1818
     16 C13         8.6806    4.0857   -6.9006 C.ar      1 <0>         0.2971
     17 C14         7.9086    5.0912   -6.3326 C.ar      1 <0>        -0.2654
     18 C15         7.4551    4.9616   -5.0346 C.ar      1 <0>        -0.0475
     19 N3          9.1365    4.2111   -8.2148 N.2       1 <0>        -1.0828
     20 S1          8.7565    5.5594   -9.0979 S.o2      1 <0>         2.6130
     21 O1          7.3499    5.5310   -9.2975 O.2       1 <0>        -1.0299
     22 O2          9.4155    6.6528   -8.4738 O.2       1 <0>        -1.0262
     23 C16         9.4944    5.3669  -10.6863 C.ar      1 <0>        -0.6464
     24 C17        10.7794    5.8261  -10.9104 C.ar      1 <0>         0.0074
     25 C18        11.3608    5.6763  -12.1542 C.ar      1 <0>        -0.1782
     26 C19        10.6536    5.0637  -13.1803 C.ar      1 <0>         0.2282
     27 C20         9.3634    4.6036  -12.9522 C.ar      1 <0>        -0.1851
     28 C21         8.7895    4.7518  -11.7046 C.ar      1 <0>         0.0057
     29 N4         11.2397    4.9108  -14.4419 N.am      1 <0>        -0.5718
     30 C22        10.6466    4.1843  -15.5745 C.3       1 <0>         0.0845
     31 C23        11.6955    4.3268  -16.6945 C.3       1 <0>         0.0937
     32 N5         12.7682    5.1185  -16.0740 N.am      1 <0>        -0.6290
     33 C24        12.4274    5.4079  -14.8113 C.2       1 <0>         0.6987
     34 O3         13.1340    6.0594  -14.0666 O.2       1 <0>        -0.5584
     35 C25        14.0095    5.5305  -16.7339 C.3       1 <0>         0.1502
     36 C26        13.8023    6.8884  -17.4079 C.3       1 <0>        -0.1385
     37 C27        15.0987    7.3187  -18.0971 C.3       1 <0>        -0.1084
     38 C28        14.8916    8.6766  -18.7711 C.3       1 <0>        -0.0927
     39 C29        13.9096    8.5358  -19.9525 C.3       1 <0>        -0.1194
     40 C30        14.4673    9.5018  -21.0271 C.3       1 <0>        -0.1274
     41 C31        15.9995    9.3278  -20.8811 C.3       1 <0>        -0.1254
     42 C32        16.2203    9.1802  -19.3615 C.3       1 <0>        -0.1224
     43 O4          4.5785    1.2884    0.7082 O.3       1 <0>        -0.5468
     44 H2         -1.0100    1.9756   -0.0073 H         1 <0>         0.1455
     45 H3          1.1604    3.1885   -0.0164 H         1 <0>         0.1413
     46 H4          3.1360   -0.5961   -0.0730 H         1 <0>         0.1538
     47 H5         -1.0127   -0.4866   -0.0381 H         1 <0>         0.1650
     48 H6          4.2423    1.2065   -1.9342 H         1 <0>         0.1360
     49 H7          3.4284    2.7840   -2.0660 H         1 <0>         0.1428
     50 H8          5.3547    3.7856   -1.0798 H         1 <0>         0.4263
     51 H9          6.0271    2.0115   -3.3203 H         1 <0>         0.1306
     52 H10         5.2132    3.5890   -3.4521 H         1 <0>         0.1303
     53 H11         7.1862    4.6922   -2.4329 H         1 <0>         0.0792
     54 H12         8.0001    3.1147   -2.3011 H         1 <0>         0.0804
     55 H13         8.7935    1.9563   -4.2813 H         1 <0>         0.1039
     56 H14         9.5988    2.1719   -6.5968 H         1 <0>         0.1164
     57 H15         7.6600    5.9715   -6.9068 H         1 <0>         0.1014
     58 H16         6.8512    5.7410   -4.5939 H         1 <0>         0.1010
     59 H17        11.3288    6.3027  -10.1120 H         1 <0>         0.1404
     60 H18        12.3643    6.0355  -12.3286 H         1 <0>         0.1622
     61 H19         8.8108    4.1268  -13.7482 H         1 <0>         0.1292
     62 H20         7.7878    4.3902  -11.5253 H         1 <0>         0.1402
     63 H21        10.4984    3.1347  -15.3204 H         1 <0>         0.0939
     64 H22         9.7041    4.6436  -15.8724 H         1 <0>         0.0925
     65 H23        12.0681    3.3480  -16.9965 H         1 <0>         0.0881
     66 H24        11.2738    4.8568  -17.5485 H         1 <0>         0.0866
     67 H25        14.8055    5.6101  -15.9935 H         1 <0>         0.0863
     68 H26        14.2847    4.7902  -17.4851 H         1 <0>         0.0821
     69 H27        13.0063    6.8088  -18.1483 H         1 <0>         0.0652
     70 H28        13.5272    7.6287  -16.6567 H         1 <0>         0.0681
     71 H29        15.8947    7.3983  -17.3567 H         1 <0>         0.0655
     72 H30        15.3739    6.5784  -18.8483 H         1 <0>         0.0646
     73 H31        14.5071    9.3968  -18.0489 H         1 <0>         0.0711
     74 H32        13.9058    7.5115  -20.3254 H         1 <0>         0.0659
     75 H33        12.9061    8.8372  -19.6525 H         1 <0>         0.0621
     76 H34        14.1379    9.2041  -22.0226 H         1 <0>         0.0642
     77 H35        14.1731   10.5293  -20.8130 H         1 <0>         0.0654
     78 H36        16.3332    8.4315  -21.4040 H         1 <0>         0.0640
     79 H37        16.5210   10.2073  -21.2587 H         1 <0>         0.0629
     80 H38        16.4803   10.1452  -18.9265 H         1 <0>         0.0624
     81 H39        17.0127    8.4572  -19.1679 H         1 <0>         0.0648
     82 H40         4.7177    0.3940    0.3681 H         1 <0>         0.3893
     83 H41         6.1082    2.3254   -0.9578 H         1 <0>         0.4292
@<TRIPOS>BOND
     1    1    6 ar
     2    1    2 ar
     3    1   44 1
     4    2    3 ar
     5    2   45 1
     6    3    4 ar
     7    3    7 1
     8    4    5 ar
     9    4   46 1
    10    5    6 ar
    11    6   47 1
    12    7    8 1
    13    7    9 1
    14    7   43 1
    15    9   10 1
    16    9   48 1
    17    9   49 1
    18   10   11 1
    19   10   50 1
    20   10   83 1
    21   11   12 1
    22   11   51 1
    23   11   52 1
    24   12   13 1
    25   12   53 1
    26   12   54 1
    27   13   18 ar
    28   13   14 ar
    29   14   15 ar
    30   14   55 1
    31   15   16 ar
    32   15   56 1
    33   16   17 ar
    34   16   19 1
    35   17   18 ar
    36   17   57 1
    37   18   58 1
    38   19   20 1
    39   20   21 2
    40   20   22 2
    41   20   23 1
    42   23   28 ar
    43   23   24 ar
    44   24   25 ar
    45   24   59 1
    46   25   26 ar
    47   25   60 1
    48   26   27 ar
    49   26   29 1
    50   27   28 ar
    51   27   61 1
    52   28   62 1
    53   29   33 am
    54   29   30 1
    55   30   31 1
    56   30   63 1
    57   30   64 1
    58   31   32 1
    59   31   65 1
    60   31   66 1
    61   32   33 am
    62   32   35 1
    63   33   34 2
    64   35   36 1
    65   35   67 1
    66   35   68 1
    67   36   37 1
    68   36   69 1
    69   36   70 1
    70   37   38 1
    71   37   71 1
    72   37   72 1
    73   38   42 1
    74   38   39 1
    75   38   73 1
    76   39   40 1
    77   39   74 1
    78   39   75 1
    79   40   41 1
    80   40   76 1
    81   40   77 1
    82   41   42 1
    83   41   78 1
    84   41   79 1
    85   42   80 1
    86   42   81 1
    87   43   82 1
@<TRIPOS>MOLECULE
CHEMBL22318
   82    85     0     0     0
SMALL
USER_CHARGES

@<TRIPOS>ATOM
      1 C1          0.2036   -6.5064    7.8964 C.3       1 <0>        -0.1553
      2 C2          0.0191   -7.7083    6.9679 C.3       1 <0>        -0.1256
      3 C3         -1.4272   -7.7516    6.4709 C.3       1 <0>        -0.1221
      4 C4         -1.6117   -8.9536    5.5423 C.3       1 <0>        -0.1204
      5 C5         -3.0580   -8.9969    5.0453 C.3       1 <0>        -0.1203
      6 C6         -3.2425  -10.1989    4.1168 C.3       1 <0>        -0.1149
      7 C7         -4.6888  -10.2422    3.6198 C.3       1 <0>        -0.1421
      8 C8         -4.8733  -11.4442    2.6912 C.3       1 <0>         0.1487
      9 N1         -6.2582  -11.4856    2.2153 N.am      1 <0>        -0.4621
     10 C9         -6.7372  -10.8953    1.0991 C.2       1 <0>         0.6496
     11 O1         -6.1063  -10.2294    0.2977 O.2       1 <0>        -0.5104
     12 N2         -8.0543  -11.1894    1.0473 N.am      1 <0>        -0.4264
     13 N3         -8.3541  -11.9752    2.1668 N.2       1 <0>         0.0292
     14 N4         -7.3260  -12.1496    2.8313 N.2       1 <0>         0.0507
     15 C10        -8.9561  -10.7822    0.0550 C.ar      1 <0>         0.2333
     16 C11        -8.5164  -10.0042   -1.0077 C.ar      1 <0>        -0.1583
     17 C12        -9.4076   -9.6048   -1.9845 C.ar      1 <0>         0.0109
     18 C13       -10.7365   -9.9787   -1.9046 C.ar      1 <0>        -0.6892
     19 C14       -11.1774  -10.7534   -0.8475 C.ar      1 <0>         0.0111
     20 C15       -10.2900  -11.1607    0.1294 C.ar      1 <0>        -0.1435
     21 S1        -11.8705   -9.4662   -3.1521 S.o2      1 <0>         2.6897
     22 O2        -13.1431   -9.3664   -2.5278 O.2       1 <0>        -0.9393
     23 O3        -11.2649   -8.3719   -3.8267 O.2       1 <0>        -0.9429
     24 N5        -11.9783  -10.6993   -4.2521 N.pl3     1 <0>        -1.0674
     25 C16       -10.8506  -11.0871   -4.9793 C.ar      1 <0>         0.1426
     26 C17       -10.3925  -10.2981   -6.0268 C.ar      1 <0>        -0.0999
     27 C18        -9.2769  -10.6843   -6.7434 C.ar      1 <0>        -0.0983
     28 C19        -8.6162  -11.8551   -6.4195 C.ar      1 <0>        -0.1008
     29 C20        -9.0696  -12.6430   -5.3773 C.ar      1 <0>        -0.1011
     30 C21       -10.1812  -12.2598   -4.6529 C.ar      1 <0>        -0.1070
     31 C22        -7.3998  -12.2738   -7.2043 C.3       1 <0>        -0.1020
     32 C23        -6.1458  -11.6867   -6.5533 C.3       1 <0>        -0.0093
     33 N6         -4.9601  -12.0948   -7.3183 N.4       1 <0>        -0.5053
     34 C24        -3.7561  -11.5311   -6.6932 C.3       1 <0>        -0.0433
     35 C25        -2.5211  -11.9562   -7.4900 C.3       1 <0>         0.1417
     36 H1         -2.6049  -11.5896   -8.5131 H         1 <0>         0.1343
     37 C26        -1.2860  -11.3779   -6.8488 C.ar      1 <0>        -0.2005
     38 C27        -0.7580  -10.1772   -7.2986 C.ar      1 <0>        -0.0545
     39 C28         0.3794   -9.6832   -6.6788 C.ar      1 <0>        -0.1637
     40 C29         0.9453  -10.3989   -5.6405 C.ar      1 <0>         0.1226
     41 N7          0.4161  -11.5379   -5.2393 N.ar      1 <0>        -0.4748
     42 C30        -0.6687  -12.0347   -5.8014 C.ar      1 <0>         0.1171
     43 O4         -2.4289  -13.3822   -7.5011 O.3       1 <0>        -0.5460
     44 H2          1.2340   -6.4755    8.2505 H         1 <0>         0.0548
     45 H3         -0.0212   -5.5890    7.3523 H         1 <0>         0.0533
     46 H4         -0.4706   -6.5982    8.7479 H         1 <0>         0.0541
     47 H5          0.6934   -7.6165    6.1164 H         1 <0>         0.0600
     48 H6          0.2440   -8.6257    7.5120 H         1 <0>         0.0610
     49 H7         -2.1014   -7.8435    7.3224 H         1 <0>         0.0618
     50 H8         -1.6520   -6.8343    5.9267 H         1 <0>         0.0606
     51 H9         -0.9375   -8.8618    4.6908 H         1 <0>         0.0614
     52 H10        -1.3868   -9.8709    6.0865 H         1 <0>         0.0630
     53 H11        -3.7322   -9.0888    5.8968 H         1 <0>         0.0642
     54 H12        -3.2828   -8.0796    4.5012 H         1 <0>         0.0622
     55 H13        -2.5683  -10.1070    3.2653 H         1 <0>         0.0674
     56 H14        -3.0177  -11.1162    4.6609 H         1 <0>         0.0704
     57 H15        -5.3630  -10.3340    4.4713 H         1 <0>         0.0762
     58 H16        -4.9136   -9.3249    3.0756 H         1 <0>         0.0711
     59 H17        -4.1991  -11.3523    1.8397 H         1 <0>         0.1067
     60 H18        -4.6485  -12.3615    3.2354 H         1 <0>         0.1100
     61 H19        -7.4788   -9.7113   -1.0703 H         1 <0>         0.1624
     62 H20        -9.0662   -8.9997   -2.8113 H         1 <0>         0.1505
     63 H21       -12.2159  -11.0438   -0.7878 H         1 <0>         0.1541
     64 H22       -10.6340  -11.7695    0.9524 H         1 <0>         0.1529
     65 H23       -12.8247  -11.1523   -4.3915 H         1 <0>         0.4318
     66 H24       -10.9084   -9.3839   -6.2807 H         1 <0>         0.1438
     67 H25        -8.9202  -10.0713   -7.5579 H         1 <0>         0.1334
     68 H26        -8.5514  -13.5568   -5.1270 H         1 <0>         0.1303
     69 H27       -10.5321  -12.8732   -3.8362 H         1 <0>         0.1359
     70 H28        -7.3295  -13.3615   -7.2128 H         1 <0>         0.0986
     71 H29        -7.4836  -11.9072   -8.2274 H         1 <0>         0.0996
     72 H30        -6.2162  -10.5990   -6.5448 H         1 <0>         0.1361
     73 H31        -6.0621  -12.0533   -5.5302 H         1 <0>         0.1338
     74 H32        -4.8950  -13.1017   -7.3261 H         1 <0>         0.4325
     75 H33        -3.8264  -10.4434   -6.6848 H         1 <0>         0.1456
     76 H34        -3.6723  -11.8978   -5.6701 H         1 <0>         0.1375
     77 H35        -1.2216   -9.6398   -8.1126 H         1 <0>         0.1413
     78 H36         0.8180   -8.7511   -7.0034 H         1 <0>         0.1474
     79 H37         1.8315  -10.0209   -5.1524 H         1 <0>         0.1671
     80 H38        -1.0765  -12.9679   -5.4420 H         1 <0>         0.1524
     81 H39        -2.3517  -13.7781   -6.6223 H         1 <0>         0.3896
     82 H40        -5.0376  -11.7554   -8.2654 H         1 <0>         0.4302
@<TRIPOS>BOND
     1    1    2 1
     2    1   44 1
     3    1   45 1
     4    1   46 1
     5    2    3 1
     6    2   47 1
     7    2   48 1
     8    3    4 1
     9    3   49 1
    10    3   50 1
    11    4    5 1
    12    4   51 1
    13    4   52 1
    14    5    6 1
    15    5   53 1
    16    5   54 1
    17    6    7 1
    18    6   55 1
    19    6   56 1
    20    7    8 1
    21    7   57 1
    22    7   58 1
    23    8    9 1
    24    8   59 1
    25    8   60 1
    26    9   14 1
    27    9   10 am
    28   10   11 2
    29   10   12 am
    30   12   13 1
    31   12   15 1
    32   13   14 2
    33   15   20 ar
    34   15   16 ar
    35   16   17 ar
    36   16   61 1
    37   17   18 ar
    38   17   62 1
    39   18   19 ar
    40   18   21 1
    41   19   20 ar
    42   19   63 1
    43   20   64 1
    44   21   22 2
    45   21   23 2
    46   21   24 1
    47   24   25 1
    48   24   65 1
    49   25   30 ar
    50   25   26 ar
    51   26   27 ar
    52   26   66 1
    53   27   28 ar
    54   27   67 1
    55   28   29 ar
    56   28   31 1
    57   29   30 ar
    58   29   68 1
    59   30   69 1
    60   31   32 1
    61   31   70 1
    62   31   71 1
    63   32   33 1
    64   32   72 1
    65   32   73 1
    66   33   34 1
    67   33   74 1
    68   33   82 1
    69   34   35 1
    70   34   75 1
    71   34   76 1
    72   35   36 1
    73   35   37 1
    74   35   43 1
    75   37   42 ar
    76   37   38 ar
    77   38   39 ar
    78   38   77 1
    79   39   40 ar
    80   39   78 1
    81   40   41 ar
    82   40   79 1
    83   41   42 ar
    84   42   80 1
    85   43   81 1
@<TRIPOS>MOLECULE
CHEMBL22318
   81    84     0     0     0
SMALL
USER_CHARGES

@<TRIPOS>ATOM
      1 C1         -0.0187    1.5258    0.0104 C.3       1 <0>        -0.1545
      2 C2          0.0021   -0.0041    0.0020 C.3       1 <0>        -0.1258
      3 C3          0.7182   -0.4975   -1.2568 C.3       1 <0>        -0.1219
      4 C4          0.7390   -2.0273   -1.2652 C.3       1 <0>        -0.1204
      5 C5          1.4551   -2.5207   -2.5240 C.3       1 <0>        -0.1200
      6 C6          1.4758   -4.0506   -2.5324 C.3       1 <0>        -0.1150
      7 C7          2.1920   -4.5440   -3.7912 C.3       1 <0>        -0.1415
      8 C8          2.2127   -6.0738   -3.7996 C.3       1 <0>         0.1507
      9 N1          2.8984   -6.5463   -5.0050 N.am      1 <0>        -0.4666
     10 C9          4.2197   -6.7991   -5.1251 C.2       1 <0>         0.6464
     11 O1          5.0672   -6.6795   -4.2584 O.2       1 <0>        -0.5080
     12 N2          4.4152   -7.2108   -6.3964 N.am      1 <0>        -0.4167
     13 N3          3.1710   -7.1982   -7.0386 N.2       1 <0>         0.0298
     14 N4          2.3030   -6.8241   -6.2414 N.2       1 <0>         0.0347
     15 C10         5.6394   -7.5821   -6.9683 C.ar      1 <0>         0.2038
     16 C11         6.8006   -7.5513   -6.2075 C.ar      1 <0>        -0.1562
     17 C12         8.0056   -7.9183   -6.7739 C.ar      1 <0>         0.0039
     18 C13         8.0565   -8.3158   -8.0974 C.ar      1 <0>        -0.6263
     19 C14         6.9019   -8.3475   -8.8577 C.ar      1 <0>         0.0009
     20 C15         5.6929   -7.9871   -8.2954 C.ar      1 <0>        -0.1458
     21 S1          9.5959   -8.7821   -8.8167 S.o2      1 <0>         2.6100
     22 O2          9.4637   -8.5910  -10.2186 O.2       1 <0>        -1.0226
     23 O3         10.6107   -8.1445   -8.0532 O.2       1 <0>        -1.0248
     24 N5          9.7754  -10.4107   -8.5760 N.2       1 <0>        -1.0816
     25 C16        10.9168  -11.0645   -9.0458 C.ar      1 <0>         0.2967
     26 C17        11.9050  -10.3491   -9.7101 C.ar      1 <0>        -0.2649
     27 C18        13.0325  -10.9985  -10.1729 C.ar      1 <0>        -0.0475
     28 C19        13.1782  -12.3595   -9.9761 C.ar      1 <0>        -0.2360
     29 C20        12.1963  -13.0747   -9.3152 C.ar      1 <0>        -0.0636
     30 C21        11.0690  -12.4305   -8.8447 C.ar      1 <0>        -0.1806
     31 C22        14.4094  -13.0650  -10.4834 C.3       1 <0>        -0.0710
     32 C23        15.4885  -13.0512   -9.3987 C.3       1 <0>        -0.0113
     33 N6         16.6887  -13.7388   -9.8933 N.4       1 <0>        -0.5054
     34 C24        17.7247  -13.7255   -8.8519 C.3       1 <0>        -0.0426
     35 C25        18.9747  -14.4418   -9.3669 C.3       1 <0>         0.1404
     36 H1         19.3460  -13.9310  -10.2554 H         1 <0>         0.1328
     37 C26        20.0375  -14.4281   -8.2986 C.ar      1 <0>        -0.1952
     38 C27        21.0091  -13.4388   -8.2874 C.ar      1 <0>        -0.0552
     39 C28        21.9670  -13.4660   -7.2856 C.ar      1 <0>        -0.1653
     40 C29        21.9221  -14.4712   -6.3380 C.ar      1 <0>         0.1185
     41 N7         20.9834  -15.3963   -6.3800 N.ar      1 <0>        -0.4762
     42 C30        20.0529  -15.3981   -7.3145 C.ar      1 <0>         0.1169
     43 O4         18.6477  -15.7933   -9.6962 O.3       1 <0>        -0.5469
     44 H2          1.0039    1.9031    0.0027 H         1 <0>         0.0533
     45 H3         -0.5459    1.8868   -0.8726 H         1 <0>         0.0533
     46 H4         -0.5289    1.8773    0.9072 H         1 <0>         0.0534
     47 H5          0.5293   -0.3651    0.8851 H         1 <0>         0.0604
     48 H6         -1.0205   -0.3814    0.0098 H         1 <0>         0.0604
     49 H7          0.1910   -0.1364   -2.1398 H         1 <0>         0.0609
     50 H8          1.7408   -0.1202   -1.2645 H         1 <0>         0.0609
     51 H9          1.2661   -2.3884   -0.3821 H         1 <0>         0.0620
     52 H10        -0.2836   -2.4046   -1.2575 H         1 <0>         0.0620
     53 H11         0.9279   -2.1597   -3.4071 H         1 <0>         0.0629
     54 H12         2.4777   -2.1435   -2.5317 H         1 <0>         0.0627
     55 H13         2.0030   -4.4117   -1.6494 H         1 <0>         0.0682
     56 H14         0.4533   -4.4279   -2.5247 H         1 <0>         0.0687
     57 H15         1.6648   -4.1829   -4.6743 H         1 <0>         0.0741
     58 H16         3.2146   -4.1667   -3.7990 H         1 <0>         0.0716
     59 H17         2.7399   -6.4349   -2.9166 H         1 <0>         0.1059
     60 H18         1.1901   -6.4511   -3.7919 H         1 <0>         0.1061
     61 H19         6.7615   -7.2403   -5.1740 H         1 <0>         0.1583
     62 H20         8.9090   -7.8945   -6.1827 H         1 <0>         0.1484
     63 H21         6.9448   -8.6584   -9.8911 H         1 <0>         0.1494
     64 H22         4.7908   -8.0164   -8.8884 H         1 <0>         0.1448
     65 H23        11.7915   -9.2863   -9.8648 H         1 <0>         0.1017
     66 H24        13.8012  -10.4429  -10.6895 H         1 <0>         0.1016
     67 H25        12.3132  -14.1376   -9.1631 H         1 <0>         0.1045
     68 H26        10.3046  -12.9889   -8.3247 H         1 <0>         0.1169
     69 H27        14.1600  -14.0959  -10.7346 H         1 <0>         0.0807
     70 H28        14.7807  -12.5542  -11.3718 H         1 <0>         0.0795
     71 H29        15.7379  -12.0202   -9.1475 H         1 <0>         0.1304
     72 H30        15.1171  -13.5619   -8.5103 H         1 <0>         0.1307
     73 H31        16.4577  -14.6931  -10.1258 H         1 <0>         0.4292
     74 H32        17.9741  -12.6946   -8.6007 H         1 <0>         0.1429
     75 H33        17.3534  -14.2363   -7.9634 H         1 <0>         0.1361
     76 H34        21.0196  -12.6656   -9.0414 H         1 <0>         0.1412
     77 H35        22.7387  -12.7115   -7.2463 H         1 <0>         0.1455
     78 H36        22.6647  -14.4995   -5.5543 H         1 <0>         0.1651
     79 H37        19.2968  -16.1693   -7.3135 H         1 <0>         0.1538
     80 H38        18.3100  -16.3090   -8.9512 H         1 <0>         0.3893
     81 H39        17.0324  -13.2660  -10.7157 H         1 <0>         0.4264
@<TRIPOS>BOND
     1    1    2 1
     2    1   44 1
     3    1   45 1
     4    1   46 1
     5    2    3 1
     6    2   47 1
     7    2   48 1
     8    3    4 1
     9    3   49 1
    10    3   50 1
    11    4    5 1
    12    4   51 1
    13    4   52 1
    14    5    6 1
    15    5   53 1
    16    5   54 1
    17    6    7 1
    18    6   55 1
    19    6   56 1
    20    7    8 1
    21    7   57 1
    22    7   58 1
    23    8    9 1
    24    8   59 1
    25    8   60 1
    26    9   14 1
    27    9   10 am
    28   10   11 2
    29   10   12 am
    30   12   13 1
    31   12   15 1
    32   13   14 2
    33   15   20 ar
    34   15   16 ar
    35   16   17 ar
    36   16   61 1
    37   17   18 ar
    38   17   62 1
    39   18   19 ar
    40   18   21 1
    41   19   20 ar
    42   19   63 1
    43   20   64 1
    44   21   22 2
    45   21   23 2
    46   21   24 1
    47   24   25 1
    48   25   30 ar
    49   25   26 ar
    50   26   27 ar
    51   26   65 1
    52   27   28 ar
    53   27   66 1
    54   28   29 ar
    55   28   31 1
    56   29   30 ar
    57   29   67 1
    58   30   68 1
    59   31   32 1
    60   31   69 1
    61   31   70 1
    62   32   33 1
    63   32   71 1
    64   32   72 1
    65   33   34 1
    66   33   73 1
    67   33   81 1
    68   34   35 1
    69   34   74 1
    70   34   75 1
    71   35   36 1
    72   35   37 1
    73   35   43 1
    74   37   42 ar
    75   37   38 ar
    76   38   39 ar
    77   38   76 1
    78   39   40 ar
    79   39   77 1
    80   40   41 ar
    81   40   78 1
    82   41   42 ar
    83   42   79 1
    84   43   80 1
@<TRIPOS>MOLECULE
CHEMBL417250
   72    75     0     0     0
SMALL
USER_CHARGES

@<TRIPOS>ATOM
      1 C1         10.6263  -15.0984   -4.1097 C.ar      1 <0>        -0.0839
      2 C2         11.7414  -14.5534   -3.4983 C.ar      1 <0>        -0.1244
      3 C3         11.6825  -13.2886   -2.9505 C.ar      1 <0>        -0.0541
      4 C4         10.4944  -12.5586   -3.0140 C.ar      1 <0>        -0.1461
      5 C5          9.3731  -13.1144   -3.6323 C.ar      1 <0>        -0.0862
      6 C6          9.4456  -14.3802   -4.1760 C.ar      1 <0>        -0.1255
      7 C7         10.4239  -11.2031   -2.4287 C.2       1 <0>         0.5642
      8 O1         11.4019  -10.7217   -1.8906 O.2       1 <0>        -0.5075
      9 N1          9.2753  -10.5008   -2.4918 N.am      1 <0>        -0.6754
     10 C8          9.1783   -9.2603   -1.8534 C.ar      1 <0>         0.2096
     11 C9          7.9825   -8.8733   -1.2624 C.ar      1 <0>        -0.1683
     12 C10         7.8902   -7.6478   -0.6324 C.ar      1 <0>         0.0026
     13 C11         8.9865   -6.8061   -0.5901 C.ar      1 <0>        -0.6940
     14 C12        10.1785   -7.1881   -1.1779 C.ar      1 <0>         0.0060
     15 C13        10.2793   -8.4149   -1.8042 C.ar      1 <0>        -0.1406
     16 S1          8.8643   -5.2431    0.2142 S.o2      1 <0>         2.6896
     17 O2          9.7815   -4.3770   -0.4399 O.2       1 <0>        -0.9392
     18 O3          7.4784   -4.9470    0.3180 O.2       1 <0>        -0.9458
     19 N2          9.4226   -5.4431    1.7604 N.pl3     1 <0>        -1.0597
     20 C14         8.7573   -6.3029    2.6374 C.ar      1 <0>         0.1677
     21 C15         7.3715   -6.2696    2.7274 C.ar      1 <0>        -0.1511
     22 C16         6.7169   -7.1215    3.5952 C.ar      1 <0>        -0.0827
     23 C17         7.4393   -8.0066    4.3743 C.ar      1 <0>        -0.1213
     24 C18         8.8190   -8.0423    4.2871 C.ar      1 <0>        -0.0879
     25 C19         9.4796   -7.1972    3.4172 C.ar      1 <0>        -0.1258
     26 C20         6.7216   -8.9339    5.3208 C.3       1 <0>        -0.0994
     27 C21         6.3866  -10.2405    4.5987 C.3       1 <0>        -0.0083
     28 N3          5.6869  -11.1444    5.5214 N.4       1 <0>        -0.5040
     29 C22         5.3653  -12.3989    4.8280 C.3       1 <0>        -0.0418
     30 C23         4.6366  -13.3404    5.7890 C.3       1 <0>         0.0856
     31 H1          3.7158  -12.8684    6.1318 H         1 <0>         0.1367
     32 C24         4.3016  -14.6470    5.0669 C.3       1 <0>         0.0290
     33 O4          3.5202  -15.4794    5.9263 O.3       1 <0>        -0.3009
     34 C25         3.1355  -16.6870    5.4334 C.ar      1 <0>         0.1089
     35 C26         3.5081  -17.0634    4.1515 C.ar      1 <0>        -0.1915
     36 C27         3.1173  -18.2900    3.6508 C.ar      1 <0>        -0.1063
     37 C28         2.3527  -19.1455    4.4301 C.ar      1 <0>         0.0805
     38 C29         1.9809  -18.7694    5.7123 C.ar      1 <0>        -0.1024
     39 C30         2.3753  -17.5446    6.2146 C.ar      1 <0>        -0.1257
     40 O5          1.9672  -20.3526    3.9369 O.3       1 <0>        -0.4956
     41 O6          5.4759  -13.6183    6.9116 O.3       1 <0>        -0.5430
     42 H2         10.6790  -16.0872   -4.5409 H         1 <0>         0.1330
     43 H3         12.6599  -15.1194   -3.4495 H         1 <0>         0.1355
     44 H4         12.5535  -12.8645   -2.4732 H         1 <0>         0.1387
     45 H5          8.4508  -12.5549   -3.6845 H         1 <0>         0.1246
     46 H6          8.5787  -14.8114   -4.6546 H         1 <0>         0.1334
     47 H7          8.5160  -10.8557   -2.9799 H         1 <0>         0.4159
     48 H8          7.1257   -9.5299   -1.2957 H         1 <0>         0.1362
     49 H9          6.9606   -7.3463   -0.1726 H         1 <0>         0.1448
     50 H10        11.0328   -6.5283   -1.1434 H         1 <0>         0.1455
     51 H11        11.2117   -8.7146   -2.2592 H         1 <0>         0.1522
     52 H12        10.2116   -4.9632    2.0570 H         1 <0>         0.4325
     53 H13         6.8067   -5.5781    2.1198 H         1 <0>         0.1642
     54 H14         5.6395   -7.0961    3.6657 H         1 <0>         0.1328
     55 H15         9.3802   -8.7347    4.8970 H         1 <0>         0.1296
     56 H16        10.5568   -7.2288    3.3463 H         1 <0>         0.1358
     57 H17         7.3618   -9.1458    6.1772 H         1 <0>         0.0975
     58 H18         5.8008   -8.4618    5.6636 H         1 <0>         0.0985
     59 H19         5.7463  -10.0285    3.7424 H         1 <0>         0.1352
     60 H20         7.3073  -10.7126    4.2559 H         1 <0>         0.1337
     61 H21         6.2796  -11.3406    6.3141 H         1 <0>         0.4337
     62 H22         4.7250  -12.1870    3.9717 H         1 <0>         0.1472
     63 H23         6.2860  -12.8710    4.4853 H         1 <0>         0.1393
     64 H24         3.7359  -14.4271    4.1615 H         1 <0>         0.0818
     65 H25         5.2246  -15.1629    4.8023 H         1 <0>         0.0765
     66 H26         4.1034  -16.3973    3.5447 H         1 <0>         0.1281
     67 H27         3.4068  -18.5828    2.6524 H         1 <0>         0.1350
     68 H28         1.3852  -19.4354    6.3190 H         1 <0>         0.1419
     69 H29         2.0889  -17.2534    7.2144 H         1 <0>         0.1389
     70 H30         2.5928  -21.0682    4.1151 H         1 <0>         0.3940
     71 H31         6.3150  -14.0399    6.6806 H         1 <0>         0.3900
     72 H32         4.8346  -10.7074    5.8387 H         1 <0>         0.4317
@<TRIPOS>BOND
     1    1    6 ar
     2    1    2 ar
     3    1   42 1
     4    2    3 ar
     5    2   43 1
     6    3    4 ar
     7    3   44 1
     8    4    5 ar
     9    4    7 1
    10    5    6 ar
    11    5   45 1
    12    6   46 1
    13    7    8 2
    14    7    9 am
    15    9   10 1
    16    9   47 1
    17   10   15 ar
    18   10   11 ar
    19   11   12 ar
    20   11   48 1
    21   12   13 ar
    22   12   49 1
    23   13   14 ar
    24   13   16 1
    25   14   15 ar
    26   14   50 1
    27   15   51 1
    28   16   17 2
    29   16   18 2
    30   16   19 1
    31   19   20 1
    32   19   52 1
    33   20   25 ar
    34   20   21 ar
    35   21   22 ar
    36   21   53 1
    37   22   23 ar
    38   22   54 1
    39   23   24 ar
    40   23   26 1
    41   24   25 ar
    42   24   55 1
    43   25   56 1
    44   26   27 1
    45   26   57 1
    46   26   58 1
    47   27   28 1
    48   27   59 1
    49   27   60 1
    50   28   29 1
    51   28   61 1
    52   28   72 1
    53   29   30 1
    54   29   62 1
    55   29   63 1
    56   30   31 1
    57   30   32 1
    58   30   41 1
    59   32   33 1
    60   32   64 1
    61   32   65 1
    62   33   34 1
    63   34   39 ar
    64   34   35 ar
    65   35   36 ar
    66   35   66 1
    67   36   37 ar
    68   36   67 1
    69   37   38 ar
    70   37   40 1
    71   38   39 ar
    72   38   68 1
    73   39   69 1
    74   40   70 1
    75   41   71 1
@<TRIPOS>MOLECULE
CHEMBL417250
   71    74     0     0     0
SMALL
USER_CHARGES

@<TRIPOS>ATOM
      1 C1         -1.0743   -0.5357    0.5764 C.ar      1 <0>        -0.0909
      2 C2         -0.9693   -1.7779    1.1767 C.ar      1 <0>        -0.1265
      3 C3          0.2351   -2.4506    1.1710 C.ar      1 <0>        -0.0563
      4 C4          1.3493   -1.8753    0.5578 C.ar      1 <0>        -0.1367
      5 C5          1.2365   -0.6218   -0.0460 C.ar      1 <0>        -0.0862
      6 C6          0.0263    0.0401   -0.0331 C.ar      1 <0>        -0.1267
      7 C7          2.6431   -2.5902    0.5483 C.2       1 <0>         0.5585
      8 O1          2.7384   -3.6815    1.0752 O.2       1 <0>        -0.5089
      9 N1          3.7170   -2.0320   -0.0446 N.am      1 <0>        -0.6705
     10 C8          4.9632   -2.6622    0.0299 C.ar      1 <0>         0.1812
     11 C9          6.1225   -1.9030    0.1240 C.ar      1 <0>        -0.1678
     12 C10         7.3516   -2.5285    0.1979 C.ar      1 <0>        -0.0050
     13 C11         7.4289   -3.9091    0.1779 C.ar      1 <0>        -0.6326
     14 C12         6.2766   -4.6678    0.0839 C.ar      1 <0>        -0.0044
     15 C13         5.0439   -4.0487    0.0159 C.ar      1 <0>        -0.1432
     16 S1          8.9990   -4.7031    0.2719 S.o2      1 <0>         2.6117
     17 O2          8.8404   -5.9875   -0.3149 O.2       1 <0>        -1.0251
     18 O3          9.9574   -3.7645   -0.1969 O.2       1 <0>        -1.0285
     19 N2          9.3263   -4.9526    1.8759 N.2       1 <0>        -1.0820
     20 C14        10.5186   -5.5721    2.2573 C.ar      1 <0>         0.2972
     21 C15        11.4337   -5.9742    1.2926 C.ar      1 <0>        -0.2654
     22 C16        12.6119   -6.5859    1.6732 C.ar      1 <0>        -0.0472
     23 C17        12.8810   -6.7987    3.0128 C.ar      1 <0>        -0.2380
     24 C18        11.9723   -6.3996    3.9757 C.ar      1 <0>        -0.0635
     25 C19        10.7947   -5.7822    3.6024 C.ar      1 <0>        -0.1815
     26 C20        14.1673   -7.4675    3.4242 C.3       1 <0>        -0.0709
     27 C21        15.2482   -6.4060    3.6383 C.3       1 <0>        -0.0110
     28 N3         16.5021   -7.0579    4.0394 N.4       1 <0>        -0.5039
     29 C22        17.5399   -6.0387    4.2449 C.3       1 <0>        -0.0418
     30 C23        18.8458   -6.7177    4.6626 C.3       1 <0>         0.0863
     31 H1         19.1634   -7.4069    3.8802 H         1 <0>         0.1348
     32 C24        19.9267   -5.6562    4.8767 C.3       1 <0>         0.0285
     33 O4         21.1744   -6.2958    5.1528 O.3       1 <0>        -0.3012
     34 C25        22.2473   -5.4888    5.3692 C.ar      1 <0>         0.1124
     35 C26        22.0991   -4.1106    5.3220 C.ar      1 <0>        -0.1913
     36 C27        23.1889   -3.2908    5.5418 C.ar      1 <0>        -0.1051
     37 C28        24.4313   -3.8459    5.8100 C.ar      1 <0>         0.0763
     38 C29        24.5793   -5.2241    5.8581 C.ar      1 <0>        -0.1034
     39 C30        23.4886   -6.0438    5.6426 C.ar      1 <0>        -0.1279
     40 O5         25.5044   -3.0389    6.0255 O.3       1 <0>        -0.4964
     41 O6         18.6397   -7.4396    5.8785 O.3       1 <0>        -0.5445
     42 H2         -2.0206   -0.0153    0.5797 H         1 <0>         0.1293
     43 H3         -1.8321   -2.2217    1.6511 H         1 <0>         0.1324
     44 H4          0.3157   -3.4200    1.6402 H         1 <0>         0.1385
     45 H5          2.0949   -0.1711   -0.5218 H         1 <0>         0.1260
     46 H6         -0.0623    1.0100   -0.4999 H         1 <0>         0.1310
     47 H7          3.6256   -1.1932   -0.5231 H         1 <0>         0.4112
     48 H8          6.0629   -0.8248    0.1389 H         1 <0>         0.1313
     49 H9          8.2534   -1.9388    0.2710 H         1 <0>         0.1407
     50 H10         6.3404   -5.7458    0.0682 H         1 <0>         0.1407
     51 H11         4.1441   -4.6419   -0.0531 H         1 <0>         0.1446
     52 H12        11.2238   -5.8089    0.2462 H         1 <0>         0.1016
     53 H13        13.3238   -6.8988    0.9237 H         1 <0>         0.1014
     54 H14        12.1856   -6.5673    5.0211 H         1 <0>         0.1040
     55 H15        10.0875   -5.4667    4.3551 H         1 <0>         0.1166
     56 H16        14.0101   -8.0181    4.3517 H         1 <0>         0.0806
     57 H17        14.4849   -8.1567    2.6418 H         1 <0>         0.0797
     58 H18        15.4055   -5.8553    2.7109 H         1 <0>         0.1312
     59 H19        14.9307   -5.7167    4.4207 H         1 <0>         0.1310
     60 H20        16.3565   -7.5676    4.8979 H         1 <0>         0.4301
     61 H21        17.6971   -5.4881    3.3175 H         1 <0>         0.1454
     62 H22        17.2223   -5.3494    5.0273 H         1 <0>         0.1381
     63 H23        20.0215   -5.0476    3.9774 H         1 <0>         0.0827
     64 H24        19.6502   -5.0206    5.7180 H         1 <0>         0.0770
     65 H25        21.1316   -3.6783    5.1131 H         1 <0>         0.1303
     66 H26        23.0736   -2.2176    5.5043 H         1 <0>         0.1348
     67 H27        25.5468   -5.6564    6.0667 H         1 <0>         0.1401
     68 H28        23.6031   -7.1170    5.6837 H         1 <0>         0.1382
     69 H29        25.6330   -2.7946    6.9522 H         1 <0>         0.3922
     70 H30        18.3550   -6.8880    6.6200 H         1 <0>         0.3893
     71 H31        16.7961   -7.6959    3.3151 H         1 <0>         0.4278
@<TRIPOS>BOND
     1    1    6 ar
     2    1    2 ar
     3    1   42 1
     4    2    3 ar
     5    2   43 1
     6    3    4 ar
     7    3   44 1
     8    4    5 ar
     9    4    7 1
    10    5    6 ar
    11    5   45 1
    12    6   46 1
    13    7    8 2
    14    7    9 am
    15    9   10 1
    16    9   47 1
    17   10   15 ar
    18   10   11 ar
    19   11   12 ar
    20   11   48 1
    21   12   13 ar
    22   12   49 1
    23   13   14 ar
    24   13   16 1
    25   14   15 ar
    26   14   50 1
    27   15   51 1
    28   16   17 2
    29   16   18 2
    30   16   19 1
    31   19   20 1
    32   20   25 ar
    33   20   21 ar
    34   21   22 ar
    35   21   52 1
    36   22   23 ar
    37   22   53 1
    38   23   24 ar
    39   23   26 1
    40   24   25 ar
    41   24   54 1
    42   25   55 1
    43   26   27 1
    44   26   56 1
    45   26   57 1
    46   27   28 1
    47   27   58 1
    48   27   59 1
    49   28   29 1
    50   28   60 1
    51   28   71 1
    52   29   30 1
    53   29   61 1
    54   29   62 1
    55   30   31 1
    56   30   32 1
    57   30   41 1
    58   32   33 1
    59   32   63 1
    60   32   64 1
    61   33   34 1
    62   34   39 ar
    63   34   35 ar
    64   35   36 ar
    65   35   65 1
    66   36   37 ar
    67   36   66 1
    68   37   38 ar
    69   37   40 1
    70   38   39 ar
    71   38   67 1
    72   39   68 1
    73   40   69 1
    74   41   70 1
@<TRIPOS>MOLECULE
CHEMBL32599
   77    80     0     0     0
SMALL
USER_CHARGES

@<TRIPOS>ATOM
      1 C1          0.8623    2.3450   -1.6112 C.3       1 <0>        -0.6345
      2 S1          1.3237    0.7820   -2.4079 S.o2      1 <0>         2.5254
      3 O1          0.5938    0.6141   -3.6155 O.2       1 <0>        -1.0369
      4 O2          2.7352    0.6194   -2.3860 O.2       1 <0>        -1.0275
      5 N1          0.7468   -0.3969   -1.3981 N.2       1 <0>        -1.0758
      6 C2          0.8428   -1.7435   -1.7677 C.ar      1 <0>         0.2691
      7 C3          1.5206   -2.1006   -2.9242 C.ar      1 <0>        -0.2339
      8 C4          1.6145   -3.4312   -3.2868 C.ar      1 <0>        -0.0970
      9 C5          1.0343   -4.4083   -2.4994 C.ar      1 <0>        -0.2010
     10 C6          0.3571   -4.0597   -1.3452 C.ar      1 <0>        -0.1035
     11 C7          0.2630   -2.7292   -0.9721 C.ar      1 <0>         0.0516
     12 O3         -0.3983   -2.3854    0.1657 O.3       1 <0>        -0.4809
     13 C8          2.3507   -3.8176   -4.5437 C.3       1 <0>         0.1389
     14 H1          3.0856   -3.0496   -4.7850 H         1 <0>         0.1241
     15 C9          1.3547   -3.9509   -5.6975 C.3       1 <0>        -0.0452
     16 N2          2.0724   -4.3276   -6.9227 N.4       1 <0>        -0.5032
     17 C10         1.1161   -4.4556   -8.0305 C.3       1 <0>         0.0265
     18 C11         0.1595   -5.6160   -7.7467 C.3       1 <0>        -0.1602
     19 C12        -0.8576   -5.7245   -8.8872 C.3       1 <0>         0.1242
     20 N3         -0.1313   -5.8386  -10.1593 N.pl3     1 <0>        -0.6321
     21 C13         0.8784   -4.8236  -10.4897 C.3       1 <0>         0.1254
     22 C14         1.8760   -4.7252   -9.3313 C.3       1 <0>        -0.1585
     23 C15        -0.3942   -6.8873  -11.0336 C.ar      1 <0>         0.2224
     24 C16        -1.2675   -7.9038  -10.6565 C.ar      1 <0>        -0.2021
     25 C17        -1.5297   -8.9430  -11.5195 C.ar      1 <0>        -0.0143
     26 C18        -0.9181   -8.9774  -12.7761 C.ar      1 <0>        -0.1619
     27 C19        -0.0416   -7.9552  -13.1518 C.ar      1 <0>        -0.0362
     28 C20         0.2121   -6.9157  -12.2865 C.ar      1 <0>        -0.2008
     29 C21        -1.1966  -10.0903  -13.7035 C.2       1 <0>         0.5530
     30 O4         -1.9589  -10.9789  -13.3753 O.2       1 <0>        -0.5465
     31 N4         -0.6062  -10.1220  -14.9147 N.am      1 <0>        -0.6867
     32 C22        -0.8828  -11.2272  -15.8357 C.3       1 <0>         0.0855
     33 H2         -1.9204  -11.5421  -15.7241 H         1 <0>         0.0846
     34 C23        -0.6421  -10.7648  -17.2741 C.3       1 <0>        -0.0786
     35 C24        -1.6376   -9.6908  -17.6298 C.ar      1 <0>        -0.0645
     36 C25        -2.8566  -10.0343  -18.1836 C.ar      1 <0>        -0.1160
     37 C26        -3.7698   -9.0491  -18.5098 C.ar      1 <0>        -0.1178
     38 C27        -3.4641   -7.7204  -18.2818 C.ar      1 <0>        -0.1341
     39 C28        -2.2454   -7.3769  -17.7272 C.ar      1 <0>        -0.1199
     40 C29        -1.3339   -8.3624  -17.3970 C.ar      1 <0>        -0.1176
     41 C30         0.0300  -12.3842  -15.5205 C.2       1 <0>         0.4927
     42 O5         -0.3383  -13.5268  -15.7333 O.co2     1 <0>        -0.6904
     43 O6          1.1368  -12.1776  -15.0527 O.co2     1 <0>        -0.6896
     44 O7          3.0154   -5.0663   -4.3415 O.3       1 <0>        -0.5530
     45 H3         -0.2219    2.3954   -1.5106 H         1 <0>         0.1175
     46 H4          1.3217    2.3992   -0.6242 H         1 <0>         0.1187
     47 H5          1.2099    3.1796   -2.2200 H         1 <0>         0.1044
     48 H6          1.9745   -1.3393   -3.5413 H         1 <0>         0.1076
     49 H7          1.1098   -5.4466   -2.7867 H         1 <0>         0.1046
     50 H8         -0.0950   -4.8255   -0.7324 H         1 <0>         0.1170
     51 H9         -1.3536   -2.2885    0.0513 H         1 <0>         0.3689
     52 H10         0.6198   -4.7189   -5.4562 H         1 <0>         0.1376
     53 H11         0.8477   -2.9984   -5.8517 H         1 <0>         0.1456
     54 H12         2.7527   -3.6167   -7.1461 H         1 <0>         0.4272
     55 H13         0.5468   -3.5312   -8.1274 H         1 <0>         0.1399
     56 H14         0.7254   -6.5447   -7.6743 H         1 <0>         0.0932
     57 H15        -0.3643   -5.4344   -6.8082 H         1 <0>         0.0994
     58 H16        -1.4783   -6.6084   -8.7403 H         1 <0>         0.1049
     59 H17        -1.4851   -4.8334   -8.9032 H         1 <0>         0.0744
     60 H18         1.4031   -5.1131  -11.4002 H         1 <0>         0.1041
     61 H19         0.3925   -3.8590  -10.6365 H         1 <0>         0.0735
     62 H20         2.5739   -3.9096   -9.5206 H         1 <0>         0.0977
     63 H21         2.4258   -5.6623   -9.2440 H         1 <0>         0.0930
     64 H22        -1.7395   -7.8768   -9.6854 H         1 <0>         0.1264
     65 H23        -2.2071   -9.7314  -11.2263 H         1 <0>         0.1368
     66 H24         0.4327   -7.9791  -14.1218 H         1 <0>         0.1264
     67 H25         0.8854   -6.1232  -12.5780 H         1 <0>         0.1256
     68 H26         0.0019   -9.4131  -15.1765 H         1 <0>         0.3879
     69 H27         0.3689  -10.3672  -17.3635 H         1 <0>         0.0755
     70 H28        -0.7614  -11.6098  -17.9522 H         1 <0>         0.0885
     71 H29        -3.0955  -11.0724  -18.3617 H         1 <0>         0.1232
     72 H30        -4.7220   -9.3175  -18.9432 H         1 <0>         0.1182
     73 H31        -4.1773   -6.9507  -18.5374 H         1 <0>         0.1156
     74 H32        -2.0064   -6.3388  -17.5494 H         1 <0>         0.1163
     75 H33        -0.3833   -8.0943  -16.9602 H         1 <0>         0.1155
     76 H34         2.4214   -5.7972   -4.1227 H         1 <0>         0.3842
     77 H35         2.5417   -5.2093   -6.7800 H         1 <0>         0.4275
@<TRIPOS>BOND
     1    1    2 1
     2    1   45 1
     3    1   46 1
     4    1   47 1
     5    2    3 2
     6    2    4 2
     7    2    5 1
     8    5    6 1
     9    6   11 ar
    10    6    7 ar
    11    7    8 ar
    12    7   48 1
    13    8    9 ar
    14    8   13 1
    15    9   10 ar
    16    9   49 1
    17   10   11 ar
    18   10   50 1
    19   11   12 1
    20   12   51 1
    21   13   14 1
    22   13   15 1
    23   13   44 1
    24   15   16 1
    25   15   52 1
    26   15   53 1
    27   16   17 1
    28   16   54 1
    29   16   77 1
    30   17   22 1
    31   17   18 1
    32   17   55 1
    33   18   19 1
    34   18   56 1
    35   18   57 1
    36   19   20 1
    37   19   58 1
    38   19   59 1
    39   20   21 1
    40   20   23 1
    41   21   22 1
    42   21   60 1
    43   21   61 1
    44   22   62 1
    45   22   63 1
    46   23   28 ar
    47   23   24 ar
    48   24   25 ar
    49   24   64 1
    50   25   26 ar
    51   25   65 1
    52   26   27 ar
    53   26   29 1
    54   27   28 ar
    55   27   66 1
    56   28   67 1
    57   29   30 2
    58   29   31 am
    59   31   32 1
    60   31   68 1
    61   32   33 1
    62   32   34 1
    63   32   41 1
    64   34   35 1
    65   34   69 1
    66   34   70 1
    67   35   40 ar
    68   35   36 ar
    69   36   37 ar
    70   36   71 1
    71   37   38 ar
    72   37   72 1
    73   38   39 ar
    74   38   73 1
    75   39   40 ar
    76   39   74 1
    77   40   75 1
    78   41   42 2
    79   41   43 1
    80   44   76 1
@<TRIPOS>MOLECULE
CHEMBL32599
   78    81     0     0     0
SMALL
USER_CHARGES

@<TRIPOS>ATOM
      1 C1          0.0603    1.6817    0.1732 C.3       1 <0>        -0.6694
      2 S1          0.0610   -0.1276    0.0417 S.o2      1 <0>         2.6060
      3 O1          0.9043   -0.6903    1.0374 O.2       1 <0>        -0.9500
      4 O2         -1.2649   -0.6057   -0.1394 O.2       1 <0>        -0.9369
      5 N1          0.8258   -0.4498   -1.3913 N.pl3     1 <0>        -1.0508
      6 C2          2.1463   -0.0304   -1.5895 C.ar      1 <0>         0.1363
      7 C3          3.0444   -0.0372   -0.5322 C.ar      1 <0>        -0.1478
      8 C4          4.3481    0.3770   -0.7306 C.ar      1 <0>        -0.1184
      9 C5          4.7603    0.7986   -1.9811 C.ar      1 <0>        -0.1029
     10 C6          3.8707    0.8081   -3.0397 C.ar      1 <0>        -0.1123
     11 C7          2.5640    0.3896   -2.8505 C.ar      1 <0>         0.1085
     12 O3          1.6893    0.3935   -3.8921 O.3       1 <0>        -0.4877
     13 C8          5.3224    0.3695    0.4191 C.3       1 <0>         0.1346
     14 H1          5.0045   -0.3641    1.1600 H         1 <0>         0.1371
     15 C9          5.3643    1.7576    1.0611 C.3       1 <0>        -0.0485
     16 N2          6.3140    1.7503    2.1818 N.4       1 <0>        -0.5038
     17 C10         6.3542    3.0831    2.7983 C.3       1 <0>         0.0271
     18 C11         6.9173    4.0922    1.7948 C.3       1 <0>        -0.1600
     19 C12         6.9255    5.4867    2.4290 C.3       1 <0>         0.1253
     20 N3          7.6611    5.4242    3.6993 N.pl3     1 <0>        -0.6336
     21 C13         7.2593    4.4262    4.7000 C.3       1 <0>         0.1248
     22 C14         7.2474    3.0436    4.0404 C.3       1 <0>        -0.1598
     23 C15         8.7178    6.2926    3.9495 C.ar      1 <0>         0.2157
     24 C16         9.0057    7.3141    3.0485 C.ar      1 <0>        -0.1997
     25 C17        10.0508    8.1752    3.2933 C.ar      1 <0>        -0.0154
     26 C18        10.8237    8.0234    4.4482 C.ar      1 <0>        -0.1548
     27 C19        10.5321    6.9967    5.3510 C.ar      1 <0>        -0.0367
     28 C20         9.4821    6.1424    5.1034 C.ar      1 <0>        -0.1983
     29 C21        11.9451    8.9445    4.7134 C.2       1 <0>         0.5504
     30 O4         12.1979    9.8369    3.9270 O.2       1 <0>        -0.5445
     31 N4         12.6894    8.7969    5.8273 N.am      1 <0>        -0.6847
     32 C22        13.8030    9.7117    6.0906 C.3       1 <0>         0.0852
     33 H2         13.5472   10.7084    5.7313 H         1 <0>         0.0853
     34 C23        14.0734    9.7659    7.5956 C.3       1 <0>        -0.0790
     35 C24        12.8855   10.3714    8.2979 C.ar      1 <0>        -0.0648
     36 C25        12.8189   11.7388    8.4894 C.ar      1 <0>        -0.1152
     37 C26        11.7292   12.2942    9.1337 C.ar      1 <0>        -0.1169
     38 C27        10.7060   11.4822    9.5861 C.ar      1 <0>        -0.1338
     39 C28        10.7722   10.1149    9.3938 C.ar      1 <0>        -0.1207
     40 C29        11.8599    9.5599    8.7457 C.ar      1 <0>        -0.1186
     41 C30        15.0358    9.2211    5.3761 C.2       1 <0>         0.4925
     42 O5         15.8742   10.0176    4.9901 O.co2     1 <0>        -0.6880
     43 O6         15.1947    8.0276    5.1839 O.co2     1 <0>        -0.6906
     44 O7          6.6239    0.0276   -0.0617 O.3       1 <0>        -0.5439
     45 H3          1.0874    2.0463    0.1735 H         1 <0>         0.1257
     46 H4         -0.4762    2.1074   -0.6748 H         1 <0>         0.1354
     47 H5         -0.4309    1.9784    1.0999 H         1 <0>         0.1392
     48 H6          0.3587   -0.9293   -2.0933 H         1 <0>         0.4366
     49 H7          2.7249   -0.3657    0.4458 H         1 <0>         0.1705
     50 H8          5.7798    1.1217   -2.1315 H         1 <0>         0.1327
     51 H9          4.1959    1.1380   -4.0153 H         1 <0>         0.1450
     52 H10         1.2033    1.2232   -3.9945 H         1 <0>         0.3979
     53 H11         5.6822    2.4912    0.3202 H         1 <0>         0.1395
     54 H12         4.3715    2.0184    1.4279 H         1 <0>         0.1445
     55 H13         6.0197    1.0713    2.8677 H         1 <0>         0.4299
     56 H14         5.3458    3.3810    3.0854 H         1 <0>         0.1402
     57 H15         7.9349    3.8088    1.5260 H         1 <0>         0.0952
     58 H16         6.2939    4.1028    0.9008 H         1 <0>         0.0947
     59 H17         7.4160    6.1908    1.7570 H         1 <0>         0.1058
     60 H18         5.9011    5.8093    2.6155 H         1 <0>         0.0722
     61 H19         7.9701    4.4307    5.5264 H         1 <0>         0.1070
     62 H20         6.2622    4.6624    5.0716 H         1 <0>         0.0733
     63 H21         6.8589    2.3079    4.7446 H         1 <0>         0.0990
     64 H22         8.2619    2.7701    3.7504 H         1 <0>         0.0951
     65 H23         8.4084    7.4306    2.1562 H         1 <0>         0.1251
     66 H24        10.2739    8.9672    2.5937 H         1 <0>         0.1382
     67 H25        11.1276    6.8767    6.2440 H         1 <0>         0.1283
     68 H26         9.2533    5.3519    5.8029 H         1 <0>         0.1256
     69 H27        12.4877    8.0851    6.4546 H         1 <0>         0.3877
     70 H28        14.2419    8.7566    7.9711 H         1 <0>         0.0757
     71 H29        14.9568   10.3759    7.7842 H         1 <0>         0.0896
     72 H30        13.6183   12.3731    8.1360 H         1 <0>         0.1239
     73 H31        11.6775   13.3624    9.2839 H         1 <0>         0.1190
     74 H32         9.8550   11.9160   10.0901 H         1 <0>         0.1159
     75 H33         9.9730    9.4805    9.7476 H         1 <0>         0.1157
     76 H34        11.9099    8.4921    8.5922 H         1 <0>         0.1147
     77 H35         6.9709    0.6388   -0.7259 H         1 <0>         0.3886
     78 H36         7.2330    1.5089    1.8423 H         1 <0>         0.4315
@<TRIPOS>BOND
     1    1    2 1
     2    1   45 1
     3    1   46 1
     4    1   47 1
     5    2    3 2
     6    2    4 2
     7    2    5 1
     8    5    6 1
     9    5   48 1
    10    6   11 ar
    11    6    7 ar
    12    7    8 ar
    13    7   49 1
    14    8    9 ar
    15    8   13 1
    16    9   10 ar
    17    9   50 1
    18   10   11 ar
    19   10   51 1
    20   11   12 1
    21   12   52 1
    22   13   14 1
    23   13   15 1
    24   13   44 1
    25   15   16 1
    26   15   53 1
    27   15   54 1
    28   16   17 1
    29   16   55 1
    30   16   78 1
    31   17   22 1
    32   17   18 1
    33   17   56 1
    34   18   19 1
    35   18   57 1
    36   18   58 1
    37   19   20 1
    38   19   59 1
    39   19   60 1
    40   20   21 1
    41   20   23 1
    42   21   22 1
    43   21   61 1
    44   21   62 1
    45   22   63 1
    46   22   64 1
    47   23   28 ar
    48   23   24 ar
    49   24   25 ar
    50   24   65 1
    51   25   26 ar
    52   25   66 1
    53   26   27 ar
    54   26   29 1
    55   27   28 ar
    56   27   67 1
    57   28   68 1
    58   29   30 2
    59   29   31 am
    60   31   32 1
    61   31   69 1
    62   32   33 1
    63   32   34 1
    64   32   41 1
    65   34   35 1
    66   34   70 1
    67   34   71 1
    68   35   40 ar
    69   35   36 ar
    70   36   37 ar
    71   36   72 1
    72   37   38 ar
    73   37   73 1
    74   38   39 ar
    75   38   74 1
    76   39   40 ar
    77   39   75 1
    78   40   76 1
    79   41   42 2
    80   41   43 1
    81   44   77 1
@<TRIPOS>MOLECULE
CHEMBL125168
   55    57     0     0     0
SMALL
USER_CHARGES

@<TRIPOS>ATOM
      1 C1          0.8236    0.9777    3.0323 C.ar      1 <0>        -0.0941
      2 C2          2.1225    0.8947    2.5744 C.ar      1 <0>        -0.1323
      3 C3          2.9603    2.0086    2.6546 C.ar      1 <0>         0.1108
      4 C4          2.4768    3.2003    3.1985 C.ar      1 <0>        -0.0967
      5 C5          1.1757    3.2697    3.6527 C.ar      1 <0>        -0.0827
      6 C6          0.3506    2.1611    3.5700 C.ar      1 <0>        -0.0956
      7 I1          0.4475    5.0563    4.4693 I         1 <0>        -0.0316
      8 N1          4.2508    1.9326    2.2022 N.2       1 <0>        -0.5689
      9 C7          4.5121    2.1195    0.9301 C.2       1 <0>         0.6510
     10 N2          3.4813    2.2999    0.0346 N.pl3     1 <0>        -0.6176
     11 C8          3.7522    2.5971   -1.2593 C.1       1 <0>         0.3870
     12 N3          3.9793    2.8463   -2.3441 N.1       1 <0>        -0.3730
     13 N4          5.8138    2.1354    0.4914 N.pl3     1 <0>        -0.6519
     14 C9          6.8538    1.8359    1.3770 C.ar      1 <0>         0.1862
     15 C10         6.6370    0.9633    2.4356 C.ar      1 <0>        -0.1100
     16 C11         7.6663    0.6693    3.3081 C.ar      1 <0>        -0.0856
     17 C12         8.9119    1.2426    3.1287 C.ar      1 <0>        -0.1281
     18 C13         9.1311    2.1118    2.0757 C.ar      1 <0>        -0.0842
     19 C14         8.1075    2.4060    1.1965 C.ar      1 <0>        -0.1448
     20 C15        10.0326    0.9199    4.0830 C.3       1 <0>        -0.0974
     21 C16        10.8027   -0.2993    3.5717 C.3       1 <0>        -0.0075
     22 N5         11.8952   -0.6139    4.5020 N.4       1 <0>        -0.5057
     23 C17        12.6346   -1.7845    4.0110 C.3       1 <0>        -0.0424
     24 C18        13.7725   -2.1122    4.9799 C.3       1 <0>         0.1414
     25 H1         13.3596   -2.3301    5.9649 H         1 <0>         0.1339
     26 C19        14.5309   -3.3130    4.4763 C.ar      1 <0>        -0.2003
     27 C20        14.2161   -4.5842    4.9323 C.ar      1 <0>        -0.0549
     28 C21        14.9405   -5.6595    4.4414 C.ar      1 <0>        -0.1642
     29 C22        15.9453   -5.4304    3.5203 C.ar      1 <0>         0.1223
     30 N6         16.2175   -4.2075    3.1093 N.ar      1 <0>        -0.4749
     31 C23        15.5451   -3.1620    3.5500 C.ar      1 <0>         0.1171
     32 O1         14.6573   -0.9938    5.0712 O.3       1 <0>        -0.5459
     33 H2          0.1733    0.1179    2.9666 H         1 <0>         0.1362
     34 H3          2.4905   -0.0301    2.1551 H         1 <0>         0.1300
     35 H4          3.1198    4.0656    3.2638 H         1 <0>         0.1309
     36 H5         -0.6671    2.2207    3.9266 H         1 <0>         0.1330
     37 H6          2.5615    2.2141    0.3302 H         1 <0>         0.4470
     38 H7          6.0116    2.3543   -0.4326 H         1 <0>         0.4221
     39 H8          5.6643    0.5154    2.5765 H         1 <0>         0.1538
     40 H9          7.4983   -0.0089    4.1317 H         1 <0>         0.1274
     41 H10        10.1049    2.5582    1.9386 H         1 <0>         0.1286
     42 H11         8.2805    3.0817    0.3720 H         1 <0>         0.1311
     43 H12        10.7076    1.7730    4.1526 H         1 <0>         0.0956
     44 H13         9.6197    0.7020    5.0680 H         1 <0>         0.0959
     45 H14        10.1278   -1.1524    3.5021 H         1 <0>         0.1335
     46 H15        11.2156   -0.0814    2.5867 H         1 <0>         0.1330
     47 H16        12.5200    0.1758    4.5664 H         1 <0>         0.4325
     48 H17        11.9596   -2.6376    3.9414 H         1 <0>         0.1445
     49 H18        13.0475   -1.5666    3.0261 H         1 <0>         0.1374
     50 H19        13.4257   -4.7330    5.6531 H         1 <0>         0.1412
     51 H20        14.7227   -6.6634    4.7748 H         1 <0>         0.1472
     52 H21        16.5142   -6.2627    3.1330 H         1 <0>         0.1671
     53 H22        15.7932   -2.1758    3.1862 H         1 <0>         0.1530
     54 H23        15.0624   -0.7431    4.2297 H         1 <0>         0.3899
     55 H24        11.5130   -0.8156    5.4137 H         1 <0>         0.4297
@<TRIPOS>BOND
     1    1    6 ar
     2    1    2 ar
     3    1   33 1
     4    2    3 ar
     5    2   34 1
     6    3    4 ar
     7    3    8 1
     8    4    5 ar
     9    4   35 1
    10    5    6 ar
    11    5    7 1
    12    6   36 1
    13    8    9 2
    14    9   10 1
    15    9   13 1
    16   10   11 1
    17   10   37 1
    18   11   12 3
    19   13   14 1
    20   13   38 1
    21   14   19 ar
    22   14   15 ar
    23   15   16 ar
    24   15   39 1
    25   16   17 ar
    26   16   40 1
    27   17   18 ar
    28   17   20 1
    29   18   19 ar
    30   18   41 1
    31   19   42 1
    32   20   21 1
    33   20   43 1
    34   20   44 1
    35   21   22 1
    36   21   45 1
    37   21   46 1
    38   22   23 1
    39   22   47 1
    40   22   55 1
    41   23   24 1
    42   23   48 1
    43   23   49 1
    44   24   25 1
    45   24   26 1
    46   24   32 1
    47   26   31 ar
    48   26   27 ar
    49   27   28 ar
    50   27   50 1
    51   28   29 ar
    52   28   51 1
    53   29   30 ar
    54   29   52 1
    55   30   31 ar
    56   31   53 1
    57   32   54 1
@<TRIPOS>MOLECULE
CHEMBL332010
   59    61     0     0     0
SMALL
USER_CHARGES

@<TRIPOS>ATOM
      1 C1          2.7607   -4.5419    2.2730 C.ar      1 <0>        -0.1079
      2 C2          4.0461   -4.0557    2.4008 C.ar      1 <0>        -0.0938
      3 C3          4.4173   -2.8826    1.7419 C.ar      1 <0>        -0.1177
      4 C4          3.4855   -2.2054    0.9551 C.ar      1 <0>        -0.0823
      5 C5          2.1971   -2.7022    0.8328 C.ar      1 <0>         0.1443
      6 C6          1.8374   -3.8712    1.4935 C.ar      1 <0>        -0.0873
      7 N1          1.2589   -2.0267    0.0455 N.pl3     1 <0>        -0.6440
      8 C7          0.2675   -2.7290   -0.5958 C.2       1 <0>         0.6634
      9 N2          0.1276   -4.0149   -0.3765 N.2       1 <0>        -0.5837
     10 C8         -0.9692   -4.6768   -0.8610 C.ar      1 <0>         0.1444
     11 C9         -2.2406   -4.3865   -0.3621 C.ar      1 <0>        -0.1636
     12 C10        -3.3410   -5.0570   -0.8546 C.ar      1 <0>        -0.0838
     13 C11        -3.1869   -6.0156   -1.8404 C.ar      1 <0>        -0.1317
     14 C12        -1.9299   -6.3086   -2.3389 C.ar      1 <0>        -0.0846
     15 C13        -0.8217   -5.6409   -1.8601 C.ar      1 <0>        -0.1264
     16 C14        -4.3936   -6.7443   -2.3731 C.3       1 <0>        -0.0976
     17 C15        -4.9676   -5.9766   -3.5657 C.3       1 <0>        -0.0079
     18 N3         -6.1439   -6.6870   -4.0850 N.4       1 <0>        -0.5057
     19 C16        -6.6950   -5.9499   -5.2300 C.3       1 <0>        -0.0426
     20 C17        -7.9201   -6.6897   -5.7709 C.3       1 <0>         0.1415
     21 H1         -8.6753   -6.7627   -4.9883 H         1 <0>         0.1338
     22 C18        -8.4855   -5.9336   -6.9455 C.ar      1 <0>        -0.2007
     23 C19        -9.5201   -5.0280   -6.7654 C.ar      1 <0>        -0.0549
     24 C20       -10.0087   -4.3553   -7.8746 C.ar      1 <0>        -0.1641
     25 C21        -9.4523   -4.6077   -9.1145 C.ar      1 <0>         0.1227
     26 N4         -8.4694   -5.4763   -9.2485 N.ar      1 <0>        -0.4748
     27 C22        -7.9756   -6.1298   -8.2148 C.ar      1 <0>         0.1172
     28 O1         -7.5383   -8.0020   -6.1883 O.3       1 <0>        -0.5459
     29 N5         -0.5794   -2.0830   -1.4689 N.pl3     1 <0>        -0.6177
     30 C23        -0.3503   -0.7901   -1.8035 C.1       1 <0>         0.3834
     31 N6         -0.1582    0.2938   -2.0839 N.1       1 <0>        -0.3669
     32 C24         5.7934   -2.3590    1.8778 C.2       1 <0>         0.5628
     33 O2          6.1144   -1.3372    1.3031 O.2       1 <0>        -0.5368
     34 N7          6.6918   -3.0148    2.6389 N.am      1 <0>        -0.8481
     35 H2          2.4767   -5.4521    2.7804 H         1 <0>         0.1357
     36 H3          4.7647   -4.5829    3.0108 H         1 <0>         0.1302
     37 H4          3.7668   -1.2970    0.4432 H         1 <0>         0.1399
     38 H5          0.8332   -4.2566    1.3971 H         1 <0>         0.1627
     39 H6          1.3082   -1.0625   -0.0477 H         1 <0>         0.4229
     40 H7         -2.3621   -3.6389    0.4078 H         1 <0>         0.1282
     41 H8         -4.3249   -4.8334   -0.4696 H         1 <0>         0.1254
     42 H9         -1.8166   -7.0582   -3.1081 H         1 <0>         0.1264
     43 H10         0.1583   -5.8669   -2.2538 H         1 <0>         0.1321
     44 H11        -4.1024   -7.7453   -2.6915 H         1 <0>         0.0960
     45 H12        -5.1488   -6.8173   -1.5905 H         1 <0>         0.0954
     46 H13        -5.2588   -4.9757   -3.2473 H         1 <0>         0.1328
     47 H14        -4.2124   -5.9037   -4.3483 H         1 <0>         0.1331
     48 H15        -5.8743   -7.6135   -4.3797 H         1 <0>         0.4328
     49 H16        -6.9862   -4.9489   -4.9116 H         1 <0>         0.1443
     50 H17        -5.9398   -5.8769   -6.0126 H         1 <0>         0.1375
     51 H18        -9.9356   -4.8513   -5.7843 H         1 <0>         0.1410
     52 H19       -10.8141   -3.6432   -7.7714 H         1 <0>         0.1473
     53 H20        -9.8273   -4.0878   -9.9837 H         1 <0>         0.1672
     54 H21        -7.1666   -6.8298   -8.3627 H         1 <0>         0.1530
     55 H22        -6.8675   -8.0136   -6.8847 H         1 <0>         0.3900
     56 H23        -1.3400   -2.5537   -1.8444 H         1 <0>         0.4424
     57 H24         6.4356   -3.8303    3.0975 H         1 <0>         0.4021
     58 H25         7.5945   -2.6714    2.7281 H         1 <0>         0.4088
     59 H26        -6.8430   -6.7545   -3.3605 H         1 <0>         0.4297
@<TRIPOS>BOND
     1    1    6 ar
     2    1    2 ar
     3    1   35 1
     4    2    3 ar
     5    2   36 1
     6    3    4 ar
     7    3   32 1
     8    4    5 ar
     9    4   37 1
    10    5    6 ar
    11    5    7 1
    12    6   38 1
    13    7    8 1
    14    7   39 1
    15    8    9 2
    16    8   29 1
    17    9   10 1
    18   10   15 ar
    19   10   11 ar
    20   11   12 ar
    21   11   40 1
    22   12   13 ar
    23   12   41 1
    24   13   14 ar
    25   13   16 1
    26   14   15 ar
    27   14   42 1
    28   15   43 1
    29   16   17 1
    30   16   44 1
    31   16   45 1
    32   17   18 1
    33   17   46 1
    34   17   47 1
    35   18   19 1
    36   18   48 1
    37   18   59 1
    38   19   20 1
    39   19   49 1
    40   19   50 1
    41   20   21 1
    42   20   22 1
    43   20   28 1
    44   22   27 ar
    45   22   23 ar
    46   23   24 ar
    47   23   51 1
    48   24   25 ar
    49   24   52 1
    50   25   26 ar
    51   25   53 1
    52   26   27 ar
    53   27   54 1
    54   28   55 1
    55   29   30 1
    56   29   56 1
    57   30   31 3
    58   32   33 2
    59   32   34 am
    60   34   57 1
    61   34   58 1
@<TRIPOS>MOLECULE
CHEMBL341614
   57    60     0     0     0
SMALL
USER_CHARGES

@<TRIPOS>ATOM
      1 C1         -0.0173    1.4248    0.0099 C.3       1 <0>         0.0251
      2 O1          0.0021   -0.0041    0.0020 O.3       1 <0>        -0.3036
      3 C2         -1.2013   -0.6380    0.0101 C.ar      1 <0>         0.1202
      4 C3         -2.3740    0.0989    0.0195 C.ar      1 <0>        -0.2065
      5 C4         -3.5967   -0.5469    0.0283 C.ar      1 <0>        -0.0834
      6 C5         -3.6532   -1.9283    0.0271 C.ar      1 <0>        -0.1525
      7 C6         -2.4875   -2.6710    0.0173 C.ar      1 <0>        -0.0882
      8 C7         -1.2572   -2.0300    0.0032 C.ar      1 <0>         0.1386
      9 N1         -0.0754   -2.7797   -0.0127 N.pl3     1 <0>        -0.6681
     10 C8          0.5713   -3.1961    1.2410 C.3       1 <0>         0.1538
     11 C9          0.8354   -4.7041    1.1750 C.3       1 <0>         0.0420
     12 N2          1.5913   -5.0126   -0.0462 N.3       1 <0>        -0.5217
     13 C10         0.8175   -4.6811   -1.2500 C.3       1 <0>         0.0373
     14 C11         0.5494   -3.1773   -1.2834 C.3       1 <0>         0.1541
     15 C12         2.0135   -6.4196   -0.0626 C.3       1 <0>         0.0271
     16 C13         2.9994   -6.6428   -1.2111 C.3       1 <0>         0.1159
     17 C14         3.3430   -8.1307   -1.3064 C.3       1 <0>         0.0250
     18 O2          4.1710   -8.3561   -2.4491 O.3       1 <0>        -0.2863
     19 C15         4.5692   -9.6360   -2.6803 C.ar      1 <0>         0.1901
     20 C16         4.1669  -10.6544   -1.8287 C.ar      1 <0>        -0.2189
     21 C17         4.5746  -11.9537   -2.0689 C.ar      1 <0>        -0.0404
     22 C18         5.3788  -12.2468   -3.1525 C.ar      1 <0>        -0.1763
     23 C19         5.7899  -11.2363   -4.0165 C.ar      1 <0>         0.1975
     24 C20         5.3749   -9.9281   -3.7725 C.ar      1 <0>        -0.1735
     25 S1          5.8966   -8.6428   -4.8637 S.3       1 <0>        -0.0490
     26 C21         7.5032   -9.2556   -5.4552 C.3       1 <0>        -0.1394
     27 C22         7.3719  -10.7176   -5.7845 C.2       1 <0>         0.5249
     28 O3          8.0176  -11.1564   -6.7128 O.2       1 <0>        -0.5124
     29 N3          6.5961  -11.5538   -5.1066 N.am      1 <0>        -0.6534
     30 O4          4.1915   -5.8932   -0.9681 O.3       1 <0>        -0.5331
     31 H1          1.0053    1.8021    0.0021 H         1 <0>         0.0995
     32 H2         -0.5445    1.7859   -0.8732 H         1 <0>         0.0538
     33 H3         -0.5275    1.7763    0.9067 H         1 <0>         0.0536
     34 H4         -2.3335    1.1781    0.0204 H         1 <0>         0.1277
     35 H5         -4.5101    0.0293    0.0363 H         1 <0>         0.1244
     36 H6         -4.6104   -2.4284    0.0343 H         1 <0>         0.1237
     37 H7         -2.5344   -3.7500    0.0168 H         1 <0>         0.1247
     38 H8          1.5150   -2.6639    1.3604 H         1 <0>         0.0593
     39 H9         -0.0855   -2.9758    2.0825 H         1 <0>         0.0695
     40 H10         1.4125   -5.0108    2.0473 H         1 <0>         0.0797
     41 H11        -0.1140   -5.2393    1.1600 H         1 <0>         0.0346
     42 H12         1.3817   -4.9710   -2.1364 H         1 <0>         0.0830
     43 H13        -0.1317   -5.2166   -1.2312 H         1 <0>         0.0342
     44 H14        -0.1219   -2.9447   -2.1101 H         1 <0>         0.0694
     45 H15         1.4910   -2.6433   -1.4113 H         1 <0>         0.0602
     46 H16         2.4960   -6.6652    0.8834 H         1 <0>         0.0827
     47 H17         1.1418   -7.0588   -0.2026 H         1 <0>         0.0444
     48 H18         2.5477   -6.3136   -2.1469 H         1 <0>         0.1102
     49 H19         3.8744   -8.4392   -0.4061 H         1 <0>         0.0707
     50 H20         2.4249   -8.7101   -1.4029 H         1 <0>         0.0733
     51 H21         3.5370  -10.4330   -0.9798 H         1 <0>         0.1371
     52 H22         4.2620  -12.7451   -1.4038 H         1 <0>         0.1375
     53 H23         5.6905  -13.2655   -3.3302 H         1 <0>         0.1360
     54 H24         7.7981   -8.7049   -6.3484 H         1 <0>         0.1513
     55 H25         8.2543   -9.1224   -4.6766 H         1 <0>         0.1263
     56 H26         6.5808  -12.4752   -5.4093 H         1 <0>         0.4162
     57 H27         4.6474   -6.1337   -0.1499 H         1 <0>         0.3720
@<TRIPOS>BOND
     1    1    2 1
     2    1   31 1
     3    1   32 1
     4    1   33 1
     5    2    3 1
     6    3    8 ar
     7    3    4 ar
     8    4    5 ar
     9    4   34 1
    10    5    6 ar
    11    5   35 1
    12    6    7 ar
    13    6   36 1
    14    7    8 ar
    15    7   37 1
    16    8    9 1
    17    9   14 1
    18    9   10 1
    19   10   11 1
    20   10   38 1
    21   10   39 1
    22   11   12 1
    23   11   40 1
    24   11   41 1
    25   12   13 1
    26   12   15 1
    27   13   14 1
    28   13   42 1
    29   13   43 1
    30   14   44 1
    31   14   45 1
    32   15   16 1
    33   15   46 1
    34   15   47 1
    35   16   17 1
    36   16   30 1
    37   16   48 1
    38   17   18 1
    39   17   49 1
    40   17   50 1
    41   18   19 1
    42   19   24 ar
    43   19   20 ar
    44   20   21 ar
    45   20   51 1
    46   21   22 ar
    47   21   52 1
    48   22   23 ar
    49   22   53 1
    50   23   29 1
    51   23   24 ar
    52   24   25 1
    53   25   26 1
    54   26   27 1
    55   26   54 1
    56   26   55 1
    57   27   28 2
    58   27   29 am
    59   29   56 1
    60   30   57 1
@<TRIPOS>MOLECULE
CHEMBL341614
   58    61     0     0     0
SMALL
USER_CHARGES

@<TRIPOS>ATOM
      1 C1         -0.0173    1.4248    0.0099 C.3       1 <0>         0.0228
      2 O1          0.0021   -0.0041    0.0020 O.3       1 <0>        -0.3107
      3 C2          0.6063   -0.6076   -1.0566 C.ar      1 <0>         0.1295
      4 C3          1.1727    0.1584   -2.0619 C.ar      1 <0>        -0.2022
      5 C4          1.7862   -0.4565   -3.1379 C.ar      1 <0>        -0.0667
      6 C5          1.8369   -1.8361   -3.2138 C.ar      1 <0>        -0.1493
      7 C6          1.2745   -2.6077   -2.2144 C.ar      1 <0>        -0.0821
      8 C7          0.6620   -1.9977   -1.1294 C.ar      1 <0>         0.1085
      9 N1          0.0968   -2.7768   -0.1132 N.pl3     1 <0>        -0.6632
     10 C8         -1.3057   -3.2146   -0.1871 C.3       1 <0>         0.1220
     11 C9         -1.3569   -4.7253    0.0636 C.3       1 <0>        -0.0223
     12 N2         -0.6925   -5.0320    1.3366 N.4       1 <0>        -0.3750
     13 C10         0.7338   -4.6939    1.2505 C.3       1 <0>        -0.0293
     14 C11         0.8902   -3.1864    1.0559 C.3       1 <0>         0.1230
     15 C12        -0.8376   -6.4641    1.6301 C.3       1 <0>        -0.0428
     16 C13        -0.2558   -6.7628    3.0132 C.3       1 <0>         0.0859
     17 C14        -0.2933   -8.2710    3.2675 C.3       1 <0>         0.0285
     18 O2          0.3550   -8.5614    4.5074 O.3       1 <0>        -0.2871
     19 C15         0.4093   -9.8669    4.8850 C.ar      1 <0>         0.1805
     20 C16        -0.1446  -10.8487    4.0765 C.ar      1 <0>        -0.2184
     21 C17        -0.0862  -12.1744    4.4654 C.ar      1 <0>        -0.0394
     22 C18         0.5217  -12.5301    5.6531 C.ar      1 <0>        -0.1679
     23 C19         1.0829  -11.5569    6.4747 C.ar      1 <0>         0.2033
     24 C20         1.0241  -10.2219    6.0781 C.ar      1 <0>        -0.1687
     25 S1          1.7315   -8.9840    7.1183 S.3       1 <0>        -0.0551
     26 C21         1.5445   -9.7078    8.7760 C.3       1 <0>        -0.1357
     27 C22         1.9301  -11.1607    8.7158 C.2       1 <0>         0.5231
     28 O3          2.4748  -11.6498    9.6829 O.2       1 <0>        -0.5018
     29 N3          1.6962  -11.9372    7.6656 N.am      1 <0>        -0.6551
     30 O4         -1.0293   -6.0923    4.0103 O.3       1 <0>        -0.5393
     31 H1          1.0053    1.8021    0.0021 H         1 <0>         0.0590
     32 H2         -0.5445    1.7859   -0.8732 H         1 <0>         0.0588
     33 H3         -0.5275    1.7763    0.9067 H         1 <0>         0.1039
     34 H4          1.1348    1.2363   -2.0057 H         1 <0>         0.1342
     35 H5          2.2267    0.1425   -3.9212 H         1 <0>         0.1319
     36 H6          2.3168   -2.3119   -4.0562 H         1 <0>         0.1305
     37 H7          1.3151   -3.6852   -2.2764 H         1 <0>         0.1263
     38 H8         -1.8914   -2.6971    0.5728 H         1 <0>         0.0787
     39 H9         -1.7068   -2.9936   -1.1762 H         1 <0>         0.1150
     40 H10        -2.3961   -5.0513    0.1082 H         1 <0>         0.1361
     41 H11        -0.8470   -5.2457   -0.7471 H         1 <0>         0.1307
     42 H12         1.2353   -4.9969    2.1697 H         1 <0>         0.1375
     43 H13         1.1804   -5.2153    0.4039 H         1 <0>         0.1313
     44 H14         1.9402   -2.9468    0.8881 H         1 <0>         0.1151
     45 H15         0.5300   -2.6661    1.9434 H         1 <0>         0.0795
     46 H16        -1.8938   -6.7330    1.6144 H         1 <0>         0.1393
     47 H17        -0.3036   -7.0450    0.8781 H         1 <0>         0.1428
     48 H18         0.7755   -6.4125    3.0570 H         1 <0>         0.1344
     49 H19        -1.3295   -8.6063    3.3120 H         1 <0>         0.0805
     50 H20         0.2217   -8.7888    2.4582 H         1 <0>         0.0840
     51 H21        -0.6207  -10.5782    3.1456 H         1 <0>         0.1350
     52 H22        -0.5196  -12.9372    3.8356 H         1 <0>         0.1407
     53 H23         0.5616  -13.5688    5.9462 H         1 <0>         0.1404
     54 H24         2.1946   -9.1859    9.4782 H         1 <0>         0.1540
     55 H25         0.5073   -9.6181    9.0990 H         1 <0>         0.1282
     56 H26         1.9935  -12.8582    7.7307 H         1 <0>         0.4191
     57 H27        -1.9596   -6.3554    4.0292 H         1 <0>         0.3898
     58 H28        -1.1202   -4.4947    2.0759 H         1 <0>         0.4284
@<TRIPOS>BOND
     1    1    2 1
     2    1   31 1
     3    1   32 1
     4    1   33 1
     5    2    3 1
     6    3    8 ar
     7    3    4 ar
     8    4    5 ar
     9    4   34 1
    10    5    6 ar
    11    5   35 1
    12    6    7 ar
    13    6   36 1
    14    7    8 ar
    15    7   37 1
    16    8    9 1
    17    9   14 1
    18    9   10 1
    19   10   11 1
    20   10   38 1
    21   10   39 1
    22   11   12 1
    23   11   40 1
    24   11   41 1
    25   12   13 1
    26   12   15 1
    27   12   58 1
    28   13   14 1
    29   13   42 1
    30   13   43 1
    31   14   44 1
    32   14   45 1
    33   15   16 1
    34   15   46 1
    35   15   47 1
    36   16   17 1
    37   16   30 1
    38   16   48 1
    39   17   18 1
    40   17   49 1
    41   17   50 1
    42   18   19 1
    43   19   24 ar
    44   19   20 ar
    45   20   21 ar
    46   20   51 1
    47   21   22 ar
    48   21   52 1
    49   22   23 ar
    50   22   53 1
    51   23   29 1
    52   23   24 ar
    53   24   25 1
    54   25   26 1
    55   26   27 1
    56   26   54 1
    57   26   55 1
    58   27   28 2
    59   27   29 am
    60   29   56 1
    61   30   57 1
@<TRIPOS>MOLECULE
CHEMBL341614
   57    60     0     0     0
SMALL
USER_CHARGES

@<TRIPOS>ATOM
      1 C1         -0.6810    1.1779    0.7629 C.3       1 <0>         0.0251
      2 O1         -0.5394   -0.2354    0.6058 O.3       1 <0>        -0.3035
      3 C2         -1.6841   -0.9632    0.5059 C.ar      1 <0>         0.1202
      4 C3         -2.9153   -0.3306    0.5524 C.ar      1 <0>        -0.2065
      5 C4         -4.0782   -1.0719    0.4512 C.ar      1 <0>        -0.0834
      6 C5         -4.0165   -2.4451    0.3032 C.ar      1 <0>        -0.1526
      7 C6         -2.7917   -3.0841    0.2556 C.ar      1 <0>        -0.0882
      8 C7         -1.6208   -2.3463    0.3510 C.ar      1 <0>         0.1386
      9 N1         -0.3792   -2.9903    0.2972 N.pl3     1 <0>        -0.6680
     10 C8          0.2686   -3.4844    1.5217 C.3       1 <0>         0.1538
     11 C9          0.6621   -4.9497    1.3070 C.3       1 <0>         0.0395
     12 N2          1.4725   -5.0620    0.0869 N.3       1 <0>        -0.5217
     13 C10         0.7040   -4.6678   -1.1014 C.3       1 <0>         0.0427
     14 C11         0.3093   -3.1963   -0.9860 C.3       1 <0>         0.1537
     15 C12         2.0135   -6.4196   -0.0626 C.3       1 <0>         0.0264
     16 C13         3.1802   -6.6133    0.9080 C.3       1 <0>         0.1191
     17 C14         3.7009   -8.0479    0.7996 C.3       1 <0>         0.0248
     18 O2          4.7119   -8.2635    1.7863 O.3       1 <0>        -0.2861
     19 C15         5.2831   -9.4973    1.8257 C.ar      1 <0>         0.1902
     20 C16         4.8833  -10.4782    0.9300 C.ar      1 <0>        -0.2190
     21 C17         5.4677  -11.7306    0.9746 C.ar      1 <0>        -0.0404
     22 C18         6.4493  -12.0130    1.9038 C.ar      1 <0>        -0.1764
     23 C19         6.8620  -11.0394    2.8085 C.ar      1 <0>         0.1975
     24 C20         6.2722   -9.7773    2.7589 C.ar      1 <0>        -0.1738
     25 S1          6.7900   -8.5404    3.9064 S.3       1 <0>        -0.0472
     26 C21         7.2926   -9.5267    5.3491 C.3       1 <0>        -0.1406
     27 C22         8.0967  -10.7056    4.8729 C.2       1 <0>         0.5250
     28 O3          9.0056  -11.0999    5.5727 O.2       1 <0>        -0.5125
     29 N3          7.8572  -11.3428    3.7340 N.am      1 <0>        -0.6533
     30 O4          4.2291   -5.6999    0.5804 O.3       1 <0>        -0.5330
     31 H1          0.3055    1.6366    0.8299 H         1 <0>         0.0996
     32 H2         -1.2144    1.5872   -0.0950 H         1 <0>         0.0536
     33 H3         -1.2419    1.3879    1.6735 H         1 <0>         0.0538
     34 H4         -2.9671    0.7419    0.6679 H         1 <0>         0.1277
     35 H5         -5.0374   -0.5769    0.4884 H         1 <0>         0.1244
     36 H6         -4.9274   -3.0200    0.2250 H         1 <0>         0.1236
     37 H7         -2.7463   -4.1570    0.1403 H         1 <0>         0.1247
     38 H8          1.1601   -2.8924    1.7287 H         1 <0>         0.0606
     39 H9         -0.4258   -3.4106    2.3587 H         1 <0>         0.0694
     40 H10         1.2410   -5.2999    2.1616 H         1 <0>         0.0807
     41 H11        -0.2374   -5.5565    1.2033 H         1 <0>         0.0349
     42 H12         1.3132   -4.8135   -1.9934 H         1 <0>         0.0799
     43 H13        -0.1962   -5.2784   -1.1715 H         1 <0>         0.0340
     44 H14        -0.3582   -2.9322   -1.8062 H         1 <0>         0.0693
     45 H15         1.2048   -2.5761   -1.0247 H         1 <0>         0.0591
     46 H16         1.2331   -7.1480    0.1573 H         1 <0>         0.0472
     47 H17         2.3642   -6.5603   -1.0850 H         1 <0>         0.0804
     48 H18         2.8403   -6.4262    1.9266 H         1 <0>         0.1091
     49 H19         2.8796   -8.7458    0.9624 H         1 <0>         0.0734
     50 H20         4.1220   -8.2076   -0.1930 H         1 <0>         0.0700
     51 H21         4.1169  -10.2642    0.1997 H         1 <0>         0.1370
     52 H22         5.1539  -12.4936    0.2777 H         1 <0>         0.1374
     53 H23         6.8988  -12.9947    1.9289 H         1 <0>         0.1359
     54 H24         7.9004   -8.9152    6.0160 H         1 <0>         0.1512
     55 H25         6.4068   -9.8782    5.8781 H         1 <0>         0.1257
     56 H26         8.4423  -12.0864    3.5202 H         1 <0>         0.4162
     57 H27         4.5807   -5.8090   -0.3138 H         1 <0>         0.3710
@<TRIPOS>BOND
     1    1    2 1
     2    1   31 1
     3    1   32 1
     4    1   33 1
     5    2    3 1
     6    3    8 ar
     7    3    4 ar
     8    4    5 ar
     9    4   34 1
    10    5    6 ar
    11    5   35 1
    12    6    7 ar
    13    6   36 1
    14    7    8 ar
    15    7   37 1
    16    8    9 1
    17    9   14 1
    18    9   10 1
    19   10   11 1
    20   10   38 1
    21   10   39 1
    22   11   12 1
    23   11   40 1
    24   11   41 1
    25   12   13 1
    26   12   15 1
    27   13   14 1
    28   13   42 1
    29   13   43 1
    30   14   44 1
    31   14   45 1
    32   15   16 1
    33   15   46 1
    34   15   47 1
    35   16   17 1
    36   16   30 1
    37   16   48 1
    38   17   18 1
    39   17   49 1
    40   17   50 1
    41   18   19 1
    42   19   24 ar
    43   19   20 ar
    44   20   21 ar
    45   20   51 1
    46   21   22 ar
    47   21   52 1
    48   22   23 ar
    49   22   53 1
    50   23   29 1
    51   23   24 ar
    52   24   25 1
    53   25   26 1
    54   26   27 1
    55   26   54 1
    56   26   55 1
    57   27   28 2
    58   27   29 am
    59   29   56 1
    60   30   57 1
@<TRIPOS>MOLECULE
CHEMBL341614
   58    61     0     0     0
SMALL
USER_CHARGES

@<TRIPOS>ATOM
      1 C1         -0.1420    1.2727   -0.6481 C.3       1 <0>         0.0228
      2 O1         -0.1148   -0.1522   -0.5437 O.3       1 <0>        -0.3107
      3 C2          0.4406   -0.8368   -1.5794 C.ar      1 <0>         0.1295
      4 C3          0.9532   -0.1520   -2.6688 C.ar      1 <0>        -0.2022
      5 C4          1.5172   -0.8493   -3.7213 C.ar      1 <0>        -0.0668
      6 C5          1.5720   -2.2304   -3.6901 C.ar      1 <0>        -0.1493
      7 C6          1.0632   -2.9213   -2.6065 C.ar      1 <0>        -0.0821
      8 C7          0.5006   -2.2282   -1.5445 C.ar      1 <0>         0.1085
      9 N1         -0.0101   -2.9252   -0.4435 N.pl3     1 <0>        -0.6632
     10 C8         -1.4120   -3.3700   -0.4137 C.3       1 <0>         0.1233
     11 C9         -1.4423   -4.8561   -0.0419 C.3       1 <0>        -0.0285
     12 N2         -0.7151   -5.0596    1.2174 N.4       1 <0>        -0.3747
     13 C10         0.7034   -4.7268    1.0351 C.3       1 <0>        -0.0220
     14 C11         0.8415   -3.2392    0.7143 C.3       1 <0>         0.1216
     15 C12        -0.8376   -6.4641    1.6301 C.3       1 <0>        -0.0431
     16 C13        -2.2964   -6.7684    1.9767 C.3       1 <0>         0.0864
     17 C14        -2.4247   -8.2322    2.4030 C.3       1 <0>         0.0285
     18 O2         -3.8023   -8.5478    2.6145 O.3       1 <0>        -0.2871
     19 C15        -4.0922   -9.8193    3.0005 C.ar      1 <0>         0.1805
     20 C16        -3.0721  -10.7425    3.1778 C.ar      1 <0>        -0.2183
     21 C17        -3.3729  -12.0337    3.5707 C.ar      1 <0>        -0.0393
     22 C18        -4.6826  -12.4122    3.7904 C.ar      1 <0>        -0.1679
     23 C19        -5.7171  -11.4974    3.6178 C.ar      1 <0>         0.2034
     24 C20        -5.4097  -10.1960    3.2240 C.ar      1 <0>        -0.1689
     25 S1         -6.7187   -9.0334    3.0007 S.3       1 <0>        -0.0536
     26 C21        -8.1085  -10.0951    2.5027 C.3       1 <0>        -0.1367
     27 C22        -8.1274  -11.3130    3.3857 C.2       1 <0>         0.5231
     28 O3         -9.2026  -11.7910    3.6800 O.2       1 <0>        -0.5019
     29 N3         -7.0305  -11.8976    3.8500 N.am      1 <0>        -0.6551
     30 O4         -2.7181   -5.9217    3.0479 O.3       1 <0>        -0.5404
     31 H1          0.8769    1.6501   -0.7357 H         1 <0>         0.0588
     32 H2         -0.7135    1.5616   -1.5302 H         1 <0>         0.0590
     33 H3         -0.6100    1.6934    0.2419 H         1 <0>         0.1039
     34 H4          0.9120    0.9269   -2.6964 H         1 <0>         0.1342
     35 H5          1.9157   -0.3136   -4.5702 H         1 <0>         0.1319
     36 H6          2.0131   -2.7708   -4.5146 H         1 <0>         0.1304
     37 H7          1.1069   -4.0002   -2.5848 H         1 <0>         0.1263
     38 H8         -1.9630   -2.7949    0.3305 H         1 <0>         0.0800
     39 H9         -1.8619   -3.2290   -1.3965 H         1 <0>         0.1149
     40 H10        -2.4762   -5.1795    0.0791 H         1 <0>         0.1371
     41 H11        -0.9694   -5.4383   -0.8328 H         1 <0>         0.1311
     42 H12         1.2506   -4.9549    1.9498 H         1 <0>         0.1362
     43 H13         1.1113   -5.3129    0.2116 H         1 <0>         0.1306
     44 H14         1.8808   -3.0118    0.4769 H         1 <0>         0.1151
     45 H15         0.5220   -2.6507    1.5743 H         1 <0>         0.0781
     46 H16        -0.5152   -7.1118    0.8148 H         1 <0>         0.1434
     47 H17        -0.2117   -6.6417    2.5046 H         1 <0>         0.1387
     48 H18        -2.9227   -6.5882    1.1030 H         1 <0>         0.1354
     49 H19        -2.0206   -8.8751    1.6210 H         1 <0>         0.0845
     50 H20        -1.8694   -8.3915    3.3273 H         1 <0>         0.0800
     51 H21        -2.0453  -10.4535    3.0089 H         1 <0>         0.1350
     52 H22        -2.5776  -12.7516    3.7064 H         1 <0>         0.1408
     53 H23        -4.9053  -13.4234    4.0974 H         1 <0>         0.1404
     54 H24        -9.0446   -9.5481    2.6145 H         1 <0>         0.1539
     55 H25        -7.9821  -10.3990    1.4636 H         1 <0>         0.1278
     56 H26        -7.1582  -12.6738    4.4174 H         1 <0>         0.4192
     57 H27        -2.2036   -6.0286    3.8596 H         1 <0>         0.3897
     58 H28        -1.1095   -4.4661    1.9317 H         1 <0>         0.4281
@<TRIPOS>BOND
     1    1    2 1
     2    1   31 1
     3    1   32 1
     4    1   33 1
     5    2    3 1
     6    3    8 ar
     7    3    4 ar
     8    4    5 ar
     9    4   34 1
    10    5    6 ar
    11    5   35 1
    12    6    7 ar
    13    6   36 1
    14    7    8 ar
    15    7   37 1
    16    8    9 1
    17    9   14 1
    18    9   10 1
    19   10   11 1
    20   10   38 1
    21   10   39 1
    22   11   12 1
    23   11   40 1
    24   11   41 1
    25   12   13 1
    26   12   15 1
    27   12   58 1
    28   13   14 1
    29   13   42 1
    30   13   43 1
    31   14   44 1
    32   14   45 1
    33   15   16 1
    34   15   46 1
    35   15   47 1
    36   16   17 1
    37   16   30 1
    38   16   48 1
    39   17   18 1
    40   17   49 1
    41   17   50 1
    42   18   19 1
    43   19   24 ar
    44   19   20 ar
    45   20   21 ar
    46   20   51 1
    47   21   22 ar
    48   21   52 1
    49   22   23 ar
    50   22   53 1
    51   23   29 1
    52   23   24 ar
    53   24   25 1
    54   25   26 1
    55   26   27 1
    56   26   54 1
    57   26   55 1
    58   27   28 2
    59   27   29 am
    60   29   56 1
    61   30   57 1
@<TRIPOS>MOLECULE
CHEMBL349651
   81    85     0     0     0
SMALL
USER_CHARGES

@<TRIPOS>ATOM
      1 C1         -0.0167    1.3776    0.0096 C.ar      1 <0>        -0.1653
      2 C2          1.1849    2.0698    0.0019 C.ar      1 <0>        -0.0550
      3 C3          2.3651    1.3426   -0.0133 C.ar      1 <0>        -0.1953
      4 C4          2.3054   -0.0383   -0.0202 C.ar      1 <0>         0.1171
      5 N1          1.1443   -0.6632   -0.0129 N.ar      1 <0>        -0.4762
      6 C5          0.0021   -0.0041    0.0020 C.ar      1 <0>         0.1183
      7 C6          3.6964    2.0488   -0.0227 C.3       1 <0>         0.1403
      8 H1          3.5852    3.0397    0.4177 H         1 <0>         0.1328
      9 C7          4.1918    2.1840   -1.4640 C.3       1 <0>        -0.0427
     10 N2          5.4895    2.8724   -1.4731 N.4       1 <0>        -0.5053
     11 C8          5.9652    3.0022   -2.8569 C.3       1 <0>        -0.0115
     12 C9          7.3168    3.7191   -2.8665 C.3       1 <0>        -0.0706
     13 C10         7.8047    3.8523   -4.2861 C.ar      1 <0>        -0.2370
     14 C11         8.5838    2.8554   -4.8441 C.ar      1 <0>        -0.0637
     15 C12         9.0327    2.9742   -6.1447 C.ar      1 <0>        -0.1812
     16 C13         8.7007    4.0968   -6.8926 C.ar      1 <0>         0.2968
     17 C14         7.9179    5.0963   -6.3289 C.ar      1 <0>        -0.2651
     18 C15         7.4677    4.9685   -5.0296 C.ar      1 <0>        -0.0475
     19 N3          9.1534    4.2204   -8.2081 N.2       1 <0>        -1.0823
     20 S1          8.7565    5.5594   -9.0980 S.o2      1 <0>         2.6116
     21 O1          7.3500    5.5136   -9.2953 O.2       1 <0>        -1.0266
     22 O2          9.4036    6.6637   -8.4807 O.2       1 <0>        -1.0254
     23 C16         9.4944    5.3669  -10.6864 C.ar      1 <0>        -0.6362
     24 C17        10.7737    5.8397  -10.9147 C.ar      1 <0>         0.0024
     25 C18        11.3548    5.6903  -12.1587 C.ar      1 <0>        -0.1675
     26 C19        10.6534    5.0641  -13.1804 C.ar      1 <0>         0.1996
     27 C20         9.3692    4.5900  -12.9478 C.ar      1 <0>        -0.1660
     28 C21         8.7953    4.7381  -11.7003 C.ar      1 <0>         0.0039
     29 N4         11.2400    4.9114  -14.4436 N.am      1 <0>        -0.4783
     30 C22        12.5116    5.3316  -14.8087 C.2       1 <0>        -0.0202
     31 C23        12.6986    5.0069  -16.0835 C.2       1 <0>         0.0061
     32 N5         11.5482    4.3787  -16.5370 N.am      1 <0>        -0.5340
     33 C24        10.6709    4.3258  -15.5155 C.2       1 <0>         0.6533
     34 O3          9.5564    3.8364  -15.5551 O.2       1 <0>        -0.5501
     35 C25        11.3278    3.8581  -17.8885 C.3       1 <0>         0.1316
     36 C26        11.7881    2.4005  -17.9549 C.3       1 <0>        -0.1377
     37 C27        11.5579    1.8567  -19.3664 C.3       1 <0>        -0.1083
     38 C28        12.0182    0.3991  -19.4328 C.3       1 <0>        -0.0927
     39 C29        13.5518    0.3220  -19.2853 C.3       1 <0>        -0.1200
     40 C30        13.9688   -0.8202  -20.2448 C.3       1 <0>        -0.1273
     41 C31        13.0174   -0.6183  -21.4503 C.3       1 <0>        -0.1255
     42 C32        11.6784   -0.1988  -20.8093 C.3       1 <0>        -0.1222
     43 O4          4.6418    1.2932    0.7371 O.3       1 <0>        -0.5469
     44 H2         -0.9552    1.9117    0.0259 H         1 <0>         0.1455
     45 H3          1.2009    3.1496    0.0072 H         1 <0>         0.1413
     46 H4          3.2203   -0.6121   -0.0320 H         1 <0>         0.1538
     47 H5         -0.9294   -0.5505    0.0083 H         1 <0>         0.1650
     48 H6          4.3030    1.1932   -1.9044 H         1 <0>         0.1361
     49 H7          3.4707    2.7604   -2.0435 H         1 <0>         0.1429
     50 H8          5.3866    3.7896   -1.0655 H         1 <0>         0.4263
     51 H9          6.0764    2.0113   -3.2973 H         1 <0>         0.1307
     52 H10         5.2440    3.5785   -3.4365 H         1 <0>         0.1304
     53 H11         7.2056    4.7100   -2.4261 H         1 <0>         0.0794
     54 H12         8.0379    3.1428   -2.2869 H         1 <0>         0.0806
     55 H13         8.8419    1.9830   -4.2620 H         1 <0>         0.1042
     56 H14         9.6415    2.1954   -6.5798 H         1 <0>         0.1166
     57 H15         7.6583    5.9706   -6.9075 H         1 <0>         0.1015
     58 H16         6.8554    5.7432   -4.5922 H         1 <0>         0.1014
     59 H17        11.3187    6.3267  -10.1197 H         1 <0>         0.1445
     60 H18        12.3537    6.0605  -12.3367 H         1 <0>         0.1346
     61 H19         8.8210    4.1028  -13.7406 H         1 <0>         0.1593
     62 H20         7.7980    4.3662  -11.5177 H         1 <0>         0.1432
     63 H21        13.2230    5.8338  -14.1698 H         1 <0>         0.1864
     64 H22        13.5889    5.1985  -16.6641 H         1 <0>         0.1873
     65 H23        10.2667    3.9154  -18.1314 H         1 <0>         0.0915
     66 H24        11.8969    4.4517  -18.6039 H         1 <0>         0.0914
     67 H25        12.8491    2.3431  -17.7120 H         1 <0>         0.0703
     68 H26        11.2190    1.8068  -17.2396 H         1 <0>         0.0696
     69 H27        10.4968    1.9141  -19.6093 H         1 <0>         0.0660
     70 H28        12.1270    2.4504  -20.0818 H         1 <0>         0.0662
     71 H29        11.5370   -0.1804  -18.6449 H         1 <0>         0.0715
     72 H30        14.0120    1.2623  -19.5889 H         1 <0>         0.0664
     73 H31        13.8245    0.0767  -18.2589 H         1 <0>         0.0629
     74 H32        15.0090   -0.7075  -20.5505 H         1 <0>         0.0646
     75 H33        13.8044   -1.7931  -19.7816 H         1 <0>         0.0655
     76 H34        13.3913    0.1701  -22.1035 H         1 <0>         0.0642
     77 H35        12.9000   -1.5500  -22.0038 H         1 <0>         0.0630
     78 H36        11.0330   -1.0689  -20.6894 H         1 <0>         0.0625
     79 H37        11.1855    0.5495  -21.4300 H         1 <0>         0.0648
     80 H38         4.7910    0.3986    0.4015 H         1 <0>         0.3893
     81 H39         6.1570    2.3389   -0.9367 H         1 <0>         0.4291
@<TRIPOS>BOND
     1    1    6 ar
     2    1    2 ar
     3    1   44 1
     4    2    3 ar
     5    2   45 1
     6    3    4 ar
     7    3    7 1
     8    4    5 ar
     9    4   46 1
    10    5    6 ar
    11    6   47 1
    12    7    8 1
    13    7    9 1
    14    7   43 1
    15    9   10 1
    16    9   48 1
    17    9   49 1
    18   10   11 1
    19   10   50 1
    20   10   81 1
    21   11   12 1
    22   11   51 1
    23   11   52 1
    24   12   13 1
    25   12   53 1
    26   12   54 1
    27   13   18 ar
    28   13   14 ar
    29   14   15 ar
    30   14   55 1
    31   15   16 ar
    32   15   56 1
    33   16   17 ar
    34   16   19 1
    35   17   18 ar
    36   17   57 1
    37   18   58 1
    38   19   20 1
    39   20   21 2
    40   20   22 2
    41   20   23 1
    42   23   28 ar
    43   23   24 ar
    44   24   25 ar
    45   24   59 1
    46   25   26 ar
    47   25   60 1
    48   26   27 ar
    49   26   29 1
    50   27   28 ar
    51   27   61 1
    52   28   62 1
    53   29   33 am
    54   29   30 1
    55   30   31 2
    56   30   63 1
    57   31   32 1
    58   31   64 1
    59   32   33 am
    60   32   35 1
    61   33   34 2
    62   35   36 1
    63   35   65 1
    64   35   66 1
    65   36   37 1
    66   36   67 1
    67   36   68 1
    68   37   38 1
    69   37   69 1
    70   37   70 1
    71   38   42 1
    72   38   39 1
    73   38   71 1
    74   39   40 1
    75   39   72 1
    76   39   73 1
    77   40   41 1
    78   40   74 1
    79   40   75 1
    80   41   42 1
    81   41   76 1
    82   41   77 1
    83   42   78 1
    84   42   79 1
    85   43   80 1
@<TRIPOS>MOLECULE
CHEMBL349651
   82    86     0     0     0
SMALL
USER_CHARGES

@<TRIPOS>ATOM
      1 C1         16.5491   14.4541   -8.6574 C.ar      1 <0>        -0.1637
      2 C2         16.6911   13.0750   -8.6888 C.ar      1 <0>        -0.0541
      3 C3         16.5398   12.3690   -7.5054 C.ar      1 <0>        -0.2001
      4 C4         16.2544   13.0582   -6.3417 C.ar      1 <0>         0.1173
      5 N1         16.1259   14.3705   -6.3493 N.ar      1 <0>        -0.4741
      6 C5         16.2636   15.0744   -7.4561 C.ar      1 <0>         0.1221
      7 C6         16.6841   10.8690   -7.4880 C.3       1 <0>         0.1417
      8 H1         17.3141   10.5549   -8.3201 H         1 <0>         0.1343
      9 C7         15.3038   10.2223   -7.6208 C.3       1 <0>        -0.0432
     10 N2         15.4445    8.7602   -7.6038 N.4       1 <0>        -0.5051
     11 C8         14.1193    8.1393   -7.7313 C.3       1 <0>        -0.0093
     12 C9         14.2657    6.6164   -7.7136 C.3       1 <0>        -0.0991
     13 C10        12.9062    5.9794   -7.8444 C.ar      1 <0>        -0.1190
     14 C11        12.1655    5.6957   -6.7116 C.ar      1 <0>        -0.0889
     15 C12        10.9193    5.1120   -6.8279 C.ar      1 <0>        -0.1253
     16 C13        10.4101    4.8099   -8.0845 C.ar      1 <0>         0.1654
     17 C14        11.1568    5.0962   -9.2203 C.ar      1 <0>        -0.1489
     18 C15        12.4000    5.6851   -9.0971 C.ar      1 <0>        -0.0825
     19 N3          9.1503    4.2191   -8.2057 N.pl3     1 <0>        -1.0598
     20 S1          8.0663    4.8004   -9.3146 S.o2      1 <0>         2.6900
     21 O1          8.7443    4.8406  -10.5628 O.2       1 <0>        -0.9444
     22 O2          6.8613    4.0715   -9.1253 O.2       1 <0>        -0.9396
     23 C16         7.7183    6.4712   -8.8765 C.ar      1 <0>        -0.6986
     24 C17         6.7508    6.7487   -7.9282 C.ar      1 <0>         0.0132
     25 C18         6.4757    8.0573   -7.5827 C.ar      1 <0>        -0.1652
     26 C19         7.1721    9.0948   -8.1882 C.ar      1 <0>         0.2290
     27 C20         8.1434    8.8129   -9.1396 C.ar      1 <0>        -0.1680
     28 C21         8.4173    7.5020   -9.4774 C.ar      1 <0>         0.0113
     29 N4          6.8951   10.4234   -7.8402 N.am      1 <0>        -0.4825
     30 C22         5.9585   10.8436   -6.9058 C.2       1 <0>        -0.0312
     31 C23         5.9937   12.1712   -6.8610 C.2       1 <0>         0.0232
     32 N5          6.9520   12.6034   -7.7657 N.am      1 <0>        -0.5315
     33 C24         7.4952   11.5172   -8.3496 C.2       1 <0>         0.6564
     34 O3          8.3736   11.5231   -9.1931 O.2       1 <0>        -0.5516
     35 C25         7.3146   13.9970   -8.0350 C.3       1 <0>         0.1277
     36 C26         8.4452   14.4205   -7.0952 C.3       1 <0>        -0.1337
     37 C27         8.8240   15.8760   -7.3763 C.3       1 <0>        -0.1110
     38 C28         9.9546   16.2994   -6.4365 C.3       1 <0>        -0.0889
     39 C29         9.4401   16.3573   -4.9833 C.3       1 <0>        -0.1199
     40 C30        10.1718   17.5767   -4.3696 C.3       1 <0>        -0.1274
     41 C31        10.1892   18.5900   -5.5409 C.3       1 <0>        -0.1266
     42 C32        10.4309   17.7190   -6.7910 C.3       1 <0>        -0.1220
     43 O4         17.2841   10.4625   -6.2564 O.3       1 <0>        -0.5458
     44 H2         16.6647   15.0364   -9.5596 H         1 <0>         0.1470
     45 H3         16.9139   12.5631   -9.6133 H         1 <0>         0.1412
     46 H4         16.1350   12.5156   -5.4156 H         1 <0>         0.1522
     47 H5         16.1518   16.1481   -7.4231 H         1 <0>         0.1664
     48 H6         14.6738   10.5364   -6.7886 H         1 <0>         0.1369
     49 H7         14.8462   10.5324   -8.5602 H         1 <0>         0.1451
     50 H8         16.0276    8.4694   -8.3741 H         1 <0>         0.4301
     51 H9         13.4893    8.4534   -6.8991 H         1 <0>         0.1330
     52 H10        13.6616    8.4494   -8.6707 H         1 <0>         0.1351
     53 H11        14.8957    6.3023   -8.5458 H         1 <0>         0.0984
     54 H12        14.7234    6.3063   -6.7742 H         1 <0>         0.0974
     55 H13        12.5621    5.9306   -5.7349 H         1 <0>         0.1297
     56 H14        10.3414    4.8904   -5.9428 H         1 <0>         0.1356
     57 H15        10.7640    4.8623  -10.1988 H         1 <0>         0.1627
     58 H16        12.9792    5.9121   -9.9799 H         1 <0>         0.1332
     59 H17         8.9102    3.4683   -7.6404 H         1 <0>         0.4321
     60 H18         6.2095    5.9413   -7.4577 H         1 <0>         0.1491
     61 H19         5.7195    8.2734   -6.8426 H         1 <0>         0.1431
     62 H20         8.6865    9.6178   -9.6126 H         1 <0>         0.1639
     63 H21         9.1752    7.2820  -10.2146 H         1 <0>         0.1465
     64 H22         5.3149   10.2047   -6.3193 H         1 <0>         0.1900
     65 H23         5.3837   12.8021   -6.2316 H         1 <0>         0.1922
     66 H24         7.6464   14.0929   -9.0688 H         1 <0>         0.0937
     67 H25         6.4472   14.6364   -7.8710 H         1 <0>         0.0965
     68 H26         8.1135   14.3246   -6.0613 H         1 <0>         0.0712
     69 H27         9.3127   13.7812   -7.2591 H         1 <0>         0.0646
     70 H28         9.1558   15.9719   -8.4102 H         1 <0>         0.0662
     71 H29         7.9565   16.5153   -7.2124 H         1 <0>         0.0698
     72 H30        10.7850   15.5974   -6.5117 H         1 <0>         0.0665
     73 H31         8.3612   16.5116   -4.9665 H         1 <0>         0.0676
     74 H32         9.7043   15.4450   -4.4485 H         1 <0>         0.0603
     75 H33         9.6142   17.9754   -3.5221 H         1 <0>         0.0667
     76 H34        11.1867   17.3099   -4.0745 H         1 <0>         0.0651
     77 H35         9.2313   19.1049   -5.6141 H         1 <0>         0.0662
     78 H36        11.0000   19.3071   -5.4130 H         1 <0>         0.0651
     79 H37        11.4926   17.7060   -7.0374 H         1 <0>         0.0614
     80 H38         9.8565   18.1063   -7.6326 H         1 <0>         0.0658
     81 H39        16.7765   10.7095   -5.4712 H         1 <0>         0.3895
     82 H40        15.8681    8.4731   -6.7342 H         1 <0>         0.4323
@<TRIPOS>BOND
     1    1    6 ar
     2    1    2 ar
     3    1   44 1
     4    2    3 ar
     5    2   45 1
     6    3    4 ar
     7    3    7 1
     8    4    5 ar
     9    4   46 1
    10    5    6 ar
    11    6   47 1
    12    7    8 1
    13    7    9 1
    14    7   43 1
    15    9   10 1
    16    9   48 1
    17    9   49 1
    18   10   11 1
    19   10   50 1
    20   10   82 1
    21   11   12 1
    22   11   51 1
    23   11   52 1
    24   12   13 1
    25   12   53 1
    26   12   54 1
    27   13   18 ar
    28   13   14 ar
    29   14   15 ar
    30   14   55 1
    31   15   16 ar
    32   15   56 1
    33   16   17 ar
    34   16   19 1
    35   17   18 ar
    36   17   57 1
    37   18   58 1
    38   19   20 1
    39   19   59 1
    40   20   21 2
    41   20   22 2
    42   20   23 1
    43   23   28 ar
    44   23   24 ar
    45   24   25 ar
    46   24   60 1
    47   25   26 ar
    48   25   61 1
    49   26   27 ar
    50   26   29 1
    51   27   28 ar
    52   27   62 1
    53   28   63 1
    54   29   33 am
    55   29   30 1
    56   30   31 2
    57   30   64 1
    58   31   32 1
    59   31   65 1
    60   32   33 am
    61   32   35 1
    62   33   34 2
    63   35   36 1
    64   35   66 1
    65   35   67 1
    66   36   37 1
    67   36   68 1
    68   36   69 1
    69   37   38 1
    70   37   70 1
    71   37   71 1
    72   38   42 1
    73   38   39 1
    74   38   72 1
    75   39   40 1
    76   39   73 1
    77   39   74 1
    78   40   41 1
    79   40   75 1
    80   40   76 1
    81   41   42 1
    82   41   77 1
    83   41   78 1
    84   42   79 1
    85   42   80 1
    86   43   81 1
@<TRIPOS>MOLECULE
CHEMBL439794
   61    64     0     0     0
SMALL
USER_CHARGES

@<TRIPOS>ATOM
      1 C1          4.3335   -3.7017    5.3095 C.ar      1 <0>        -0.1073
      2 C2          5.5979   -3.3078    4.8776 C.ar      1 <0>        -0.1244
      3 C3          5.7712   -2.7254    3.6575 C.ar      1 <0>        -0.0858
      4 C4          4.6640   -2.5196    2.8256 C.ar      1 <0>        -0.0481
      5 C5          3.3768   -2.9189    3.2617 C.ar      1 <0>        -0.0327
      6 C6          3.2356   -3.5165    4.5261 C.ar      1 <0>        -0.1115
      7 C7          2.2685   -2.7111    2.4239 C.ar      1 <0>        -0.1203
      8 C8          2.4211   -2.1319    1.2016 C.ar      1 <0>        -0.0923
      9 C9          3.6632   -1.7252    0.7338 C.ar      1 <0>        -0.1982
     10 C10         4.8022   -1.8996    1.5097 C.ar      1 <0>         0.1410
     11 N1          6.0248   -1.5006    1.0522 N.2       1 <0>        -0.5643
     12 C11         6.1450   -0.3639    0.4052 C.2       1 <0>         0.6459
     13 N2          5.0841    0.5117    0.3489 N.pl3     1 <0>        -0.6194
     14 C12         5.1617    1.6213   -0.4250 C.1       1 <0>         0.3866
     15 N3          5.2267    2.5515   -1.0738 N.1       1 <0>        -0.3743
     16 N4          7.3289   -0.0487   -0.2150 N.pl3     1 <0>        -0.6517
     17 C13         8.4499   -0.8656   -0.0381 C.ar      1 <0>         0.1794
     18 C14         8.2984   -2.2425    0.0651 C.ar      1 <0>        -0.1032
     19 C15         9.4077   -3.0465    0.2393 C.ar      1 <0>        -0.0893
     20 C16        10.6681   -2.4822    0.3114 C.ar      1 <0>        -0.1235
     21 C17        10.8224   -1.1117    0.2094 C.ar      1 <0>        -0.0880
     22 C18         9.7178   -0.3025    0.0290 C.ar      1 <0>        -0.1399
     23 C19        11.8763   -3.3626    0.5020 C.3       1 <0>        -0.0979
     24 C20        12.4218   -3.7828   -0.8643 C.3       1 <0>        -0.0077
     25 N5         13.5994   -4.6410   -0.6786 N.4       1 <0>        -0.5056
     26 C21        14.1231   -5.0445   -1.9904 C.3       1 <0>        -0.0425
     27 C22        15.3497   -5.9383   -1.7969 C.3       1 <0>         0.1414
     28 H1         15.0671   -6.8254   -1.2300 H         1 <0>         0.1339
     29 C23        15.8870   -6.3523   -3.1427 C.ar      1 <0>        -0.2003
     30 C24        15.5052   -7.5585   -3.7103 C.ar      1 <0>        -0.0549
     31 C25        16.0247   -7.8981   -4.9499 C.ar      1 <0>        -0.1641
     32 C26        16.8998   -7.0292   -5.5744 C.ar      1 <0>         0.1224
     33 N6         17.2410   -5.8903   -5.0045 N.ar      1 <0>        -0.4750
     34 C27        16.7618   -5.5320   -3.8292 C.ar      1 <0>         0.1171
     35 O1         16.3564   -5.2177   -1.0832 O.3       1 <0>        -0.5460
     36 H2          4.2231   -4.1652    6.2788 H         1 <0>         0.1248
     37 H3          6.4527   -3.4658    5.5185 H         1 <0>         0.1225
     38 H4          6.7568   -2.4242    3.3345 H         1 <0>         0.1289
     39 H5          2.2615   -3.8273    4.8741 H         1 <0>         0.1302
     40 H6          1.2855   -3.0143    2.7528 H         1 <0>         0.1281
     41 H7          1.5515   -1.9851    0.5781 H         1 <0>         0.1247
     42 H8          3.7447   -1.2692   -0.2418 H         1 <0>         0.1240
     43 H9          4.2810    0.3343    0.8631 H         1 <0>         0.4501
     44 H10         7.3875    0.7406   -0.7758 H         1 <0>         0.4222
     45 H11         7.3143   -2.6838    0.0096 H         1 <0>         0.1559
     46 H12         9.2907   -4.1171    0.3196 H         1 <0>         0.1278
     47 H13        11.8080   -0.6741    0.2669 H         1 <0>         0.1285
     48 H14         9.8394    0.7673   -0.0550 H         1 <0>         0.1309
     49 H15        12.6442   -2.8129    1.0463 H         1 <0>         0.0958
     50 H16        11.5936   -4.2497    1.0688 H         1 <0>         0.0963
     51 H17        11.6539   -4.3325   -1.4087 H         1 <0>         0.1338
     52 H18        12.7044   -2.8957   -1.4312 H         1 <0>         0.1332
     53 H19        14.3103   -4.1322   -0.1747 H         1 <0>         0.4325
     54 H20        13.3553   -5.5941   -2.5348 H         1 <0>         0.1446
     55 H21        14.4058   -4.1574   -2.5573 H         1 <0>         0.1375
     56 H22        14.8198   -8.2179   -3.1986 H         1 <0>         0.1412
     57 H23        15.7496   -8.8299   -5.4215 H         1 <0>         0.1472
     58 H24        17.3089   -7.2864   -6.5403 H         1 <0>         0.1671
     59 H25        17.0602   -4.5887   -3.3961 H         1 <0>         0.1530
     60 H26        16.6564   -4.4144   -1.5301 H         1 <0>         0.3898
     61 H27        13.3378   -5.4622   -0.1538 H         1 <0>         0.4298
@<TRIPOS>BOND
     1    1    6 ar
     2    1    2 ar
     3    1   36 1
     4    2    3 ar
     5    2   37 1
     6    3    4 ar
     7    3   38 1
     8    4   10 ar
     9    4    5 ar
    10    5    6 ar
    11    5    7 ar
    12    6   39 1
    13    7    8 ar
    14    7   40 1
    15    8    9 ar
    16    8   41 1
    17    9   10 ar
    18    9   42 1
    19   10   11 1
    20   11   12 2
    21   12   13 1
    22   12   16 1
    23   13   14 1
    24   13   43 1
    25   14   15 3
    26   16   17 1
    27   16   44 1
    28   17   22 ar
    29   17   18 ar
    30   18   19 ar
    31   18   45 1
    32   19   20 ar
    33   19   46 1
    34   20   21 ar
    35   20   23 1
    36   21   22 ar
    37   21   47 1
    38   22   48 1
    39   23   24 1
    40   23   49 1
    41   23   50 1
    42   24   25 1
    43   24   51 1
    44   24   52 1
    45   25   26 1
    46   25   53 1
    47   25   61 1
    48   26   27 1
    49   26   54 1
    50   26   55 1
    51   27   28 1
    52   27   29 1
    53   27   35 1
    54   29   34 ar
    55   29   30 ar
    56   30   31 ar
    57   30   56 1
    58   31   32 ar
    59   31   57 1
    60   32   33 ar
    61   32   58 1
    62   33   34 ar
    63   34   59 1
    64   35   60 1
@<TRIPOS>MOLECULE
CHEMBL1083995
   66    70     0     0     0
SMALL
USER_CHARGES

@<TRIPOS>ATOM
      1 C1          3.9528    3.4691    3.7639 C.3       1 <0>         0.0244
      2 O1          3.3451    2.1840    3.6174 O.3       1 <0>        -0.3153
      3 C2          3.9583    1.1375    4.2322 C.ar      1 <0>         0.1045
      4 C3          5.1171    1.3460    4.9653 C.ar      1 <0>        -0.1670
      5 C4          5.7399    0.2829    5.5898 C.ar      1 <0>        -0.1012
      6 C5          5.2062   -0.9929    5.4842 C.ar      1 <0>         0.0793
      7 C6          4.0469   -1.2013    4.7518 C.ar      1 <0>        -0.1663
      8 C7          3.4217   -0.1375    4.1309 C.ar      1 <0>        -0.1139
      9 O2          5.8199   -2.0396    6.0982 O.3       1 <0>        -0.3021
     10 C8          5.2152   -3.3255    5.9472 C.3       1 <0>         0.0303
     11 C9          6.0410   -4.3692    6.7020 C.3       1 <0>         0.0872
     12 C10         5.4659   -5.7623    6.4387 C.3       1 <0>        -0.0456
     13 N1          6.2587   -6.7644    7.1634 N.4       1 <0>        -0.5013
     14 C11         5.7066   -8.1020    6.9105 C.3       1 <0>         0.0290
     15 C12         4.2982   -8.1924    7.5024 C.3       1 <0>        -0.1594
     16 C13         3.7123   -9.5767    7.2067 C.3       1 <0>         0.1334
     17 N2          4.6424  -10.5998    7.7035 N.pl3     1 <0>        -0.6466
     18 C14         6.0447  -10.5510    7.2677 C.3       1 <0>         0.1446
     19 C15         6.6045   -9.1559    7.5627 C.3       1 <0>        -0.1582
     20 C16         4.2062  -11.5900    8.5655 C.ar      1 <0>         0.4730
     21 C17         4.0212  -12.9191    8.0988 C.ar      1 <0>        -0.1834
     22 C18         4.2254  -13.4740    6.7647 C.2       1 <0>        -0.0623
     23 C19         3.9786  -14.7896    6.5619 C.2       1 <0>        -0.1376
     24 S1          3.4529  -15.3662    8.1646 S.3       1 <0>         0.1411
     25 C20         3.5741  -13.8434    9.0648 C.ar      1 <0>         0.1200
     26 N3          3.3481  -13.4788   10.3123 N.ar      1 <0>        -0.4773
     27 C21         3.5372  -12.2286   10.6869 C.ar      1 <0>         0.3351
     28 N4          3.9616  -11.3117    9.8359 N.ar      1 <0>        -0.5419
     29 C22         4.6936  -12.6135    5.6526 C.ar      1 <0>        -0.0266
     30 C23         3.9410  -11.5078    5.2585 C.ar      1 <0>        -0.0886
     31 C24         4.3820  -10.7103    4.2224 C.ar      1 <0>        -0.1340
     32 C25         5.5680  -11.0062    3.5746 C.ar      1 <0>        -0.1162
     33 C26         6.3187  -12.1022    3.9608 C.ar      1 <0>        -0.1174
     34 C27         5.8913  -12.9031    5.0000 C.ar      1 <0>        -0.1023
     35 O3          5.9939   -4.0915    8.1030 O.3       1 <0>        -0.5431
     36 H1          4.9636    3.4415    3.3568 H         1 <0>         0.0579
     37 H2          3.3646    4.2126    3.2260 H         1 <0>         0.1053
     38 H3          3.9938    3.7333    4.8206 H         1 <0>         0.0580
     39 H4          5.5326    2.3394    5.0476 H         1 <0>         0.1401
     40 H5          6.6426    0.4451    6.1601 H         1 <0>         0.1365
     41 H6          3.6316   -2.1948    4.6692 H         1 <0>         0.1306
     42 H7          2.5169   -0.2991    3.5637 H         1 <0>         0.1373
     43 H8          4.2033   -3.3010    6.3517 H         1 <0>         0.0754
     44 H9          5.1776   -3.5874    4.8898 H         1 <0>         0.0805
     45 H10         7.0748   -4.3321    6.3588 H         1 <0>         0.1350
     46 H11         4.4320   -5.7995    6.7819 H         1 <0>         0.1401
     47 H12         5.5018   -5.9742    5.3700 H         1 <0>         0.1469
     48 H13         7.2158   -6.7300    6.8457 H         1 <0>         0.4301
     49 H14         5.6607   -8.2787    5.8359 H         1 <0>         0.1415
     50 H15         4.3462   -8.0405    8.5807 H         1 <0>         0.0963
     51 H16         3.6654   -7.4263    7.0544 H         1 <0>         0.0935
     52 H17         2.7510   -9.6816    7.7097 H         1 <0>         0.0903
     53 H18         3.5792   -9.6950    6.1314 H         1 <0>         0.0896
     54 H19         6.6224  -11.2989    7.8110 H         1 <0>         0.0870
     55 H20         6.1018  -10.7488    6.1974 H         1 <0>         0.0849
     56 H21         7.6132   -9.0754    7.1576 H         1 <0>         0.0977
     57 H22         6.6308   -8.9948    8.6404 H         1 <0>         0.0937
     58 H23         4.0767  -15.3550    5.6470 H         1 <0>         0.2019
     59 H24         3.3465  -11.9497   11.7127 H         1 <0>         0.2122
     60 H25         3.0146  -11.2763    5.7631 H         1 <0>         0.1220
     61 H26         3.7999   -9.8537    3.9163 H         1 <0>         0.1227
     62 H27         5.9090  -10.3794    2.7639 H         1 <0>         0.1234
     63 H28         7.2436  -12.3285    3.4512 H         1 <0>         0.1275
     64 H29         6.4808  -13.7554    5.3041 H         1 <0>         0.1261
     65 H30         5.1025   -4.1077    8.4774 H         1 <0>         0.3897
     66 H31         6.2255   -6.5683    8.1526 H         1 <0>         0.4319
@<TRIPOS>BOND
     1    1    2 1
     2    1   36 1
     3    1   37 1
     4    1   38 1
     5    2    3 1
     6    3    8 ar
     7    3    4 ar
     8    4    5 ar
     9    4   39 1
    10    5    6 ar
    11    5   40 1
    12    6    7 ar
    13    6    9 1
    14    7    8 ar
    15    7   41 1
    16    8   42 1
    17    9   10 1
    18   10   11 1
    19   10   43 1
    20   10   44 1
    21   11   12 1
    22   11   35 1
    23   11   45 1
    24   12   13 1
    25   12   46 1
    26   12   47 1
    27   13   14 1
    28   13   48 1
    29   13   66 1
    30   14   19 1
    31   14   15 1
    32   14   49 1
    33   15   16 1
    34   15   50 1
    35   15   51 1
    36   16   17 1
    37   16   52 1
    38   16   53 1
    39   17   18 1
    40   17   20 1
    41   18   19 1
    42   18   54 1
    43   18   55 1
    44   19   56 1
    45   19   57 1
    46   20   28 ar
    47   20   21 ar
    48   21   25 ar
    49   21   22 1
    50   22   23 2
    51   22   29 1
    52   23   24 1
    53   23   58 1
    54   24   25 1
    55   25   26 ar
    56   26   27 ar
    57   27   28 ar
    58   27   59 1
    59   29   34 ar
    60   29   30 ar
    61   30   31 ar
    62   30   60 1
    63   31   32 ar
    64   31   61 1
    65   32   33 ar
    66   32   62 1
    67   33   34 ar
    68   33   63 1
    69   34   64 1
    70   35   65 1
@<TRIPOS>MOLECULE
CHEMBL1083995
   66    70     0     0     0
SMALL
USER_CHARGES

@<TRIPOS>ATOM
      1 C1          4.4544    3.3918    4.0635 C.3       1 <0>         0.0244
      2 O1          3.8072    2.1424    3.8145 O.3       1 <0>        -0.3153
      3 C2          4.3284    1.0447    4.4249 C.ar      1 <0>         0.1045
      4 C3          5.4359    1.1704    5.2504 C.ar      1 <0>        -0.1670
      5 C4          5.9653    0.0554    5.8705 C.ar      1 <0>        -0.1012
      6 C5          5.3891   -1.1898    5.6680 C.ar      1 <0>         0.0792
      7 C6          4.2810   -1.3155    4.8432 C.ar      1 <0>        -0.1663
      8 C7          3.7490   -0.1998    4.2266 C.ar      1 <0>        -0.1139
      9 O2          5.9108   -2.2877    6.2777 O.3       1 <0>        -0.3022
     10 C8          5.2669   -3.5380    6.0244 C.3       1 <0>         0.0304
     11 C9          5.9894   -4.6481    6.7902 C.3       1 <0>         0.0873
     12 C10         5.2279   -5.9642    6.6196 C.3       1 <0>        -0.0452
     13 N1          5.8526   -7.0025    7.4501 N.4       1 <0>        -0.5018
     14 C11         5.1215   -8.2661    7.2864 C.3       1 <0>         0.0293
     15 C12         3.7011   -8.1079    7.8335 C.3       1 <0>        -0.1600
     16 C13         2.9310   -9.4164    7.6297 C.3       1 <0>         0.1335
     17 N2          3.6938  -10.5140    8.2397 N.pl3     1 <0>        -0.6467
     18 C14         5.0986  -10.6992    7.8511 C.3       1 <0>         0.1447
     19 C15         5.8444   -9.3763    8.0525 C.3       1 <0>        -0.1582
     20 C16         3.1008  -11.3568    9.1627 C.ar      1 <0>         0.4731
     21 C17         2.7392  -12.6815    8.7981 C.ar      1 <0>        -0.1834
     22 C18         2.8935  -13.3705    7.5210 C.2       1 <0>        -0.0623
     23 C19         2.4667  -14.6509    7.4161 C.2       1 <0>        -0.1376
     24 S1          1.8265  -15.0104    9.0405 S.3       1 <0>         0.1411
     25 C20         2.1424  -13.4490    9.8190 C.ar      1 <0>         0.1200
     26 N3          1.9413  -12.9520   11.0243 N.ar      1 <0>        -0.4774
     27 C21         2.2978  -11.7135   11.3036 C.ar      1 <0>         0.3351
     28 N4          2.8685  -10.9404   10.3971 N.ar      1 <0>        -0.5419
     29 C22         3.5057  -12.6813    6.3605 C.ar      1 <0>        -0.0266
     30 C23         2.9278  -11.5184    5.8525 C.ar      1 <0>        -0.0886
     31 C24         3.5023  -10.8812    4.7717 C.ar      1 <0>        -0.1341
     32 C25         4.6489  -11.3940    4.1921 C.ar      1 <0>        -0.1163
     33 C26         5.2264  -12.5477    4.6914 C.ar      1 <0>        -0.1174
     34 C27         4.6649  -13.1900    5.7760 C.ar      1 <0>        -0.1023
     35 O3          7.3153   -4.7951    6.2779 O.3       1 <0>        -0.5426
     36 H1          5.4912    3.3365    3.7314 H         1 <0>         0.0580
     37 H2          3.9398    4.1827    3.5178 H         1 <0>         0.1053
     38 H3          4.4260    3.6093    5.1312 H         1 <0>         0.0579
     39 H4          5.8845    2.1401    5.4080 H         1 <0>         0.1401
     40 H5          6.8280    0.1533    6.5127 H         1 <0>         0.1365
     41 H6          3.8326   -2.2852    4.6853 H         1 <0>         0.1306
     42 H7          2.8840   -0.2970    3.5873 H         1 <0>         0.1373
     43 H8          4.2291   -3.4855    6.3536 H         1 <0>         0.0801
     44 H9          5.2988   -3.7532    4.9563 H         1 <0>         0.0759
     45 H10         6.0352   -4.3893    7.8480 H         1 <0>         0.1340
     46 H11         4.1915   -5.8269    6.9281 H         1 <0>         0.1466
     47 H12         5.2584   -6.2686    5.5734 H         1 <0>         0.1404
     48 H13         6.8120   -7.1295    7.1646 H         1 <0>         0.4332
     49 H14         5.0762   -8.5249    6.2285 H         1 <0>         0.1411
     50 H15         3.7449   -7.8734    8.8971 H         1 <0>         0.0964
     51 H16         3.1947   -7.3013    7.3033 H         1 <0>         0.0943
     52 H17         1.9530   -9.3427    8.1053 H         1 <0>         0.0905
     53 H18         2.8077   -9.6055    6.5633 H         1 <0>         0.0896
     54 H19         5.5509  -11.4719    8.4728 H         1 <0>         0.0870
     55 H20         5.1521  -10.9930    6.8028 H         1 <0>         0.0849
     56 H21         6.8636   -9.4726    7.6781 H         1 <0>         0.0978
     57 H22         5.8681   -9.1299    9.1140 H         1 <0>         0.0936
     58 H23         2.5046  -15.2999    6.5537 H         1 <0>         0.2020
     59 H24         2.1248  -11.3249   12.2962 H         1 <0>         0.2121
     60 H25         2.0323  -11.1175    6.3037 H         1 <0>         0.1221
     61 H26         3.0556   -9.9804    4.3773 H         1 <0>         0.1226
     62 H27         5.0947  -10.8920    3.3461 H         1 <0>         0.1233
     63 H28         6.1214  -12.9436    4.2346 H         1 <0>         0.1275
     64 H29         5.1196  -14.0877    6.1682 H         1 <0>         0.1261
     65 H30         7.3510   -5.0259    5.3395 H         1 <0>         0.3899
     66 H31         5.8244   -6.7206    8.4186 H         1 <0>         0.4289
@<TRIPOS>BOND
     1    1    2 1
     2    1   36 1
     3    1   37 1
     4    1   38 1
     5    2    3 1
     6    3    8 ar
     7    3    4 ar
     8    4    5 ar
     9    4   39 1
    10    5    6 ar
    11    5   40 1
    12    6    7 ar
    13    6    9 1
    14    7    8 ar
    15    7   41 1
    16    8   42 1
    17    9   10 1
    18   10   11 1
    19   10   43 1
    20   10   44 1
    21   11   12 1
    22   11   35 1
    23   11   45 1
    24   12   13 1
    25   12   46 1
    26   12   47 1
    27   13   14 1
    28   13   48 1
    29   13   66 1
    30   14   19 1
    31   14   15 1
    32   14   49 1
    33   15   16 1
    34   15   50 1
    35   15   51 1
    36   16   17 1
    37   16   52 1
    38   16   53 1
    39   17   18 1
    40   17   20 1
    41   18   19 1
    42   18   54 1
    43   18   55 1
    44   19   56 1
    45   19   57 1
    46   20   28 ar
    47   20   21 ar
    48   21   25 ar
    49   21   22 1
    50   22   23 2
    51   22   29 1
    52   23   24 1
    53   23   58 1
    54   24   25 1
    55   25   26 ar
    56   26   27 ar
    57   27   28 ar
    58   27   59 1
    59   29   34 ar
    60   29   30 ar
    61   30   31 ar
    62   30   60 1
    63   31   32 ar
    64   31   61 1
    65   32   33 ar
    66   32   62 1
    67   33   34 ar
    68   33   63 1
    69   34   64 1
    70   35   65 1
@<TRIPOS>MOLECULE
CHEMBL42895
   42    44     0     0     0
SMALL
USER_CHARGES

@<TRIPOS>ATOM
      1 C1          0.1182    1.3503    1.1112 C.ar      1 <0>        -0.1791
      2 C2          1.3109    2.0502    1.1053 C.ar      1 <0>        -0.0721
      3 C3          2.5083    1.3761    0.9680 C.ar      1 <0>        -0.1944
      4 C4          2.5138   -0.0067    0.8357 C.ar      1 <0>         0.2141
      5 C5          1.3140   -0.7067    0.8420 C.ar      1 <0>        -0.2003
      6 C6          0.1201   -0.0263    0.9797 C.ar      1 <0>        -0.0728
      7 N1          3.7231   -0.6917    0.6962 N.pl3     1 <0>        -0.7429
      8 C7          3.7270   -2.1501    0.5568 C.3       1 <0>         0.0999
      9 C8          5.1682   -2.6456    0.4211 C.3       1 <0>         0.1031
     10 C9          5.1664   -4.1515    0.1510 C.3       1 <0>         0.0449
     11 O1          6.5036   -4.5936   -0.0910 O.3       1 <0>        -0.2181
     12 N2          6.6129   -5.9808   -0.3534 N.2       1 <0>        -0.3429
     13 C10         7.7593   -6.4995   -0.5859 C.2       1 <0>         0.2013
     14 C11         7.8939   -7.9928   -0.7374 C.3       1 <0>        -0.1110
     15 C12         7.1687   -8.6519   -1.9124 C.3       1 <0>        -0.1577
     16 C13         6.6472   -8.8435   -0.4869 C.3       1 <0>        -0.1612
     17 C14         8.9748   -5.6170   -0.7084 C.3       1 <0>        -0.1570
     18 C15         8.8578   -4.3717   -1.5895 C.3       1 <0>        -0.1522
     19 C16         9.6804   -5.5709   -2.0651 C.3       1 <0>        -0.1635
     20 O2          5.8792   -2.3796    1.6318 O.3       1 <0>        -0.5479
     21 H1         -0.8165    1.8796    1.2232 H         1 <0>         0.1182
     22 H2          1.3059    3.1254    1.2078 H         1 <0>         0.1211
     23 H3          3.4394    1.9233    0.9631 H         1 <0>         0.1193
     24 H4          1.3147   -1.7818    0.7390 H         1 <0>         0.1178
     25 H5         -0.8131   -0.5699    0.9846 H         1 <0>         0.1201
     26 H6          4.5602   -0.2018    0.6916 H         1 <0>         0.4043
     27 H7          3.2693   -2.6005    1.4376 H         1 <0>         0.0665
     28 H8          3.1608   -2.4317   -0.3311 H         1 <0>         0.0716
     29 H9          5.6537   -2.1285   -0.4065 H         1 <0>         0.1128
     30 H10         4.7616   -4.6755    1.0169 H         1 <0>         0.0621
     31 H11         4.5500   -4.3632   -0.7226 H         1 <0>         0.0662
     32 H12         8.8562   -8.4105   -0.4412 H         1 <0>         0.1319
     33 H13         6.5942   -8.0054   -2.5758 H         1 <0>         0.0959
     34 H14         7.6539   -9.5034   -2.3896 H         1 <0>         0.1047
     35 H15         6.7893   -9.8211   -0.0262 H         1 <0>         0.1022
     36 H16         5.7296   -8.3231   -0.2124 H         1 <0>         0.1047
     37 H17         9.5957   -5.5456    0.1846 H         1 <0>         0.1218
     38 H18         7.9017   -4.1907   -2.0806 H         1 <0>         0.0933
     39 H19         9.4018   -3.4806   -1.2762 H         1 <0>         0.0993
     40 H20        10.7656   -5.4687   -2.0648 H         1 <0>         0.1011
     41 H21         9.2656   -6.1787   -2.8692 H         1 <0>         0.0971
     42 H22         5.5021   -2.8089    2.4118 H         1 <0>         0.3777
@<TRIPOS>BOND
     1    1    6 ar
     2    1    2 ar
     3    1   21 1
     4    2    3 ar
     5    2   22 1
     6    3    4 ar
     7    3   23 1
     8    4    5 ar
     9    4    7 1
    10    5    6 ar
    11    5   24 1
    12    6   25 1
    13    7    8 1
    14    7   26 1
    15    8    9 1
    16    8   27 1
    17    8   28 1
    18    9   10 1
    19    9   20 1
    20    9   29 1
    21   10   11 1
    22   10   30 1
    23   10   31 1
    24   11   12 1
    25   12   13 2
    26   13   14 1
    27   13   17 1
    28   14   16 1
    29   14   15 1
    30   14   32 1
    31   15   16 1
    32   15   33 1
    33   15   34 1
    34   16   35 1
    35   16   36 1
    36   17   19 1
    37   17   18 1
    38   17   37 1
    39   18   19 1
    40   18   38 1
    41   18   39 1
    42   19   40 1
    43   19   41 1
    44   20   42 1
@<TRIPOS>MOLECULE
CHEMBL42895
   42    44     0     0     0
SMALL
USER_CHARGES

@<TRIPOS>ATOM
      1 C1          0.0098    1.3424    1.1173 C.ar      1 <0>        -0.1792
      2 C2          1.1961    2.0530    1.1141 C.ar      1 <0>        -0.0721
      3 C3          2.3998    1.3898    0.9776 C.ar      1 <0>        -0.1944
      4 C4          2.4179    0.0073    0.8434 C.ar      1 <0>         0.2143
      5 C5          1.2245   -0.7034    0.8471 C.ar      1 <0>        -0.2003
      6 C6          0.0243   -0.0340    0.9839 C.ar      1 <0>        -0.0729
      7 N1          3.6335   -0.6665    0.7048 N.pl3     1 <0>        -0.7425
      8 C7          3.6508   -2.1246    0.5634 C.3       1 <0>         0.0996
      9 C8          5.0966   -2.6069    0.4292 C.3       1 <0>         0.1031
     10 C9          5.1146   -4.1296    0.2816 C.3       1 <0>         0.0451
     11 O1          6.4669   -4.5914    0.2732 O.3       1 <0>        -0.2182
     12 N2          6.5953   -5.9953    0.1401 N.2       1 <0>        -0.3430
     13 C10         7.7564   -6.5324    0.1192 C.2       1 <0>         0.2014
     14 C11         7.8923   -8.0332    0.1075 C.3       1 <0>        -0.1111
     15 C12         7.3373   -8.7834   -1.1051 C.3       1 <0>        -0.1576
     16 C13         6.6115   -8.8596    0.2396 C.3       1 <0>        -0.1614
     17 C14         8.9881   -5.6642    0.1063 C.3       1 <0>        -0.1594
     18 C15         9.0168   -4.4933   -0.8781 C.3       1 <0>        -0.1484
     19 C16         9.8843   -5.7277   -1.1321 C.3       1 <0>        -0.1643
     20 O2          5.6929   -2.0094   -0.7238 O.3       1 <0>        -0.5476
     21 H1         -0.9298    1.8630    1.2286 H         1 <0>         0.1181
     22 H2          1.1812    3.1279    1.2180 H         1 <0>         0.1211
     23 H3          3.3259    1.9455    0.9748 H         1 <0>         0.1194
     24 H4          1.2351   -1.7783    0.7426 H         1 <0>         0.1178
     25 H5         -0.9040   -0.5860    0.9867 H         1 <0>         0.1201
     26 H6          4.4662   -0.1691    0.7021 H         1 <0>         0.4049
     27 H7          3.1959   -2.5803    1.4429 H         1 <0>         0.0721
     28 H8          3.0885   -2.4101   -0.3256 H         1 <0>         0.0656
     29 H9          5.6588   -2.3214    1.3182 H         1 <0>         0.1134
     30 H10         4.5813   -4.5821    1.1176 H         1 <0>         0.0674
     31 H11         4.6292   -4.4098   -0.6533 H         1 <0>         0.0606
     32 H12         8.7957   -8.4271    0.5731 H         1 <0>         0.1318
     33 H13         6.8739   -8.1913   -1.8943 H         1 <0>         0.0958
     34 H14         7.8757   -9.6710   -1.4374 H         1 <0>         0.1046
     35 H15         6.6723   -9.7973    0.7920 H         1 <0>         0.1022
     36 H16         5.6705   -8.3177    0.3351 H         1 <0>         0.1047
     37 H17         9.4734   -5.5223    1.0720 H         1 <0>         0.1209
     38 H18         8.1448   -4.3509   -1.5164 H         1 <0>         0.0956
     39 H19         9.5210   -3.5807   -0.5601 H         1 <0>         0.0987
     40 H20        10.9591   -5.6272   -0.9813 H         1 <0>         0.1005
     41 H21         9.5830   -6.3975   -1.9376 H         1 <0>         0.0967
     42 H22         5.2433   -2.2210   -1.5534 H         1 <0>         0.3770
@<TRIPOS>BOND
     1    1    6 ar
     2    1    2 ar
     3    1   21 1
     4    2    3 ar
     5    2   22 1
     6    3    4 ar
     7    3   23 1
     8    4    5 ar
     9    4    7 1
    10    5    6 ar
    11    5   24 1
    12    6   25 1
    13    7    8 1
    14    7   26 1
    15    8    9 1
    16    8   27 1
    17    8   28 1
    18    9   10 1
    19    9   20 1
    20    9   29 1
    21   10   11 1
    22   10   30 1
    23   10   31 1
    24   11   12 1
    25   12   13 2
    26   13   14 1
    27   13   17 1
    28   14   16 1
    29   14   15 1
    30   14   32 1
    31   15   16 1
    32   15   33 1
    33   15   34 1
    34   16   35 1
    35   16   36 1
    36   17   19 1
    37   17   18 1
    38   17   37 1
    39   18   19 1
    40   18   38 1
    41   18   39 1
    42   19   40 1
    43   19   41 1
    44   20   42 1
@<TRIPOS>MOLECULE
CHEMBL37235
   43    45     0     0     0
SMALL
USER_CHARGES

@<TRIPOS>ATOM
      1 C1         -0.0167    1.3780    0.0096 C.ar      1 <0>        -0.1221
      2 C2          1.1706    2.0866    0.0021 C.ar      1 <0>        -0.0521
      3 C3          2.3773    1.4137   -0.0131 C.ar      1 <0>        -0.1465
      4 C4          2.3974    0.0291   -0.0207 C.ar      1 <0>         0.1201
      5 C5          1.2080   -0.6793   -0.0132 C.ar      1 <0>        -0.2023
      6 C6          0.0021   -0.0041    0.0020 C.ar      1 <0>        -0.0602
      7 C7          1.2281   -2.1862   -0.0220 C.3       1 <0>         0.0483
      8 N1          1.4884   -2.6804    1.3367 N.4       1 <0>        -0.5042
      9 C8          1.5080   -4.1492    1.3281 C.3       1 <0>        -0.0423
     10 C9          1.7791   -4.6639    2.7432 C.3       1 <0>         0.0860
     11 C10         1.9233   -6.1868    2.7131 C.3       1 <0>         0.0298
     12 O1          2.2913   -6.6562    4.0116 O.3       1 <0>        -0.2970
     13 C11         2.4609   -7.9964    4.1579 C.ar      1 <0>         0.1686
     14 C12         2.2844   -8.8416    3.0793 C.ar      1 <0>        -0.2422
     15 C13         2.4576  -10.2104    3.2264 C.ar      1 <0>        -0.0617
     16 C14         2.8068  -10.7485    4.4455 C.ar      1 <0>        -0.1567
     17 C15         2.9903   -9.9175    5.5468 C.ar      1 <0>         0.1320
     18 C16         2.8216   -8.5296    5.4014 C.ar      1 <0>        -0.1321
     19 C17         3.0889   -7.9477    6.7189 C.2       1 <0>        -0.1882
     20 C18         3.3938   -8.9632    7.5416 C.2       1 <0>         0.0490
     21 N2          3.3317  -10.1496    6.8604 N.pl3     1 <0>        -0.5918
     22 H1          3.5117  -11.0223    7.2436 H         1 <0>         0.4218
     23 O2          0.6909   -4.3053    3.5971 O.3       1 <0>        -0.5423
     24 F1          3.5766   -0.6299   -0.0360 F         1 <0>        -0.1327
     25 H2         -0.9594    1.9048    0.0260 H         1 <0>         0.1456
     26 H3          1.1547    3.1665    0.0077 H         1 <0>         0.1483
     27 H4          3.3046    1.9675   -0.0193 H         1 <0>         0.1503
     28 H5         -0.9259   -0.5565    0.0083 H         1 <0>         0.1446
     29 H6          0.2640   -2.5604   -0.3662 H         1 <0>         0.1458
     30 H7          2.0136   -2.5351   -0.6922 H         1 <0>         0.1412
     31 H8          2.3809   -2.3340    1.6554 H         1 <0>         0.4297
     32 H9          0.5438   -4.5234    0.9839 H         1 <0>         0.1424
     33 H10         2.2935   -4.4982    0.6578 H         1 <0>         0.1478
     34 H11         2.6995   -4.2192    3.1215 H         1 <0>         0.1345
     35 H12         0.9745   -6.6359    2.4197 H         1 <0>         0.0775
     36 H13         2.6944   -6.4646    1.9944 H         1 <0>         0.0819
     37 H14         2.0099   -8.4350    2.1172 H         1 <0>         0.1241
     38 H15         2.3168  -10.8610    2.3760 H         1 <0>         0.1313
     39 H16         2.9379  -11.8157    4.5468 H         1 <0>         0.1260
     40 H17         3.0489   -6.9002    6.9787 H         1 <0>         0.1484
     41 H18         3.6420   -8.8609    8.5877 H         1 <0>         0.1756
     42 H19        -0.1621   -4.6673    3.3204 H         1 <0>         0.3899
     43 H20         0.7612   -2.3573    1.9572 H         1 <0>         0.4341
@<TRIPOS>BOND
     1    1    6 ar
     2    1    2 ar
     3    1   25 1
     4    2    3 ar
     5    2   26 1
     6    3    4 ar
     7    3   27 1
     8    4    5 ar
     9    4   24 1
    10    5    6 ar
    11    5    7 1
    12    6   28 1
    13    7    8 1
    14    7   29 1
    15    7   30 1
    16    8    9 1
    17    8   31 1
    18    8   43 1
    19    9   10 1
    20    9   32 1
    21    9   33 1
    22   10   11 1
    23   10   23 1
    24   10   34 1
    25   11   12 1
    26   11   35 1
    27   11   36 1
    28   12   13 1
    29   13   18 ar
    30   13   14 ar
    31   14   15 ar
    32   14   37 1
    33   15   16 ar
    34   15   38 1
    35   16   17 ar
    36   16   39 1
    37   17   21 1
    38   17   18 ar
    39   18   19 1
    40   19   20 2
    41   19   40 1
    42   20   21 1
    43   20   41 1
    44   21   22 1
    45   23   42 1
@<TRIPOS>MOLECULE
CHEMBL37235
   43    45     0     0     0
SMALL
USER_CHARGES

@<TRIPOS>ATOM
      1 C1         -0.0167    1.3780    0.0096 C.ar      1 <0>        -0.1224
      2 C2          1.1706    2.0866    0.0021 C.ar      1 <0>        -0.0521
      3 C3          2.3773    1.4137   -0.0131 C.ar      1 <0>        -0.1465
      4 C4          2.3974    0.0291   -0.0207 C.ar      1 <0>         0.1208
      5 C5          1.2080   -0.6793   -0.0132 C.ar      1 <0>        -0.2026
      6 C6          0.0021   -0.0041    0.0020 C.ar      1 <0>        -0.0606
      7 C7          1.2281   -2.1862   -0.0220 C.3       1 <0>         0.0483
      8 N1          1.4884   -2.6804    1.3367 N.4       1 <0>        -0.5038
      9 C8          1.5080   -4.1492    1.3281 C.3       1 <0>        -0.0428
     10 C9          1.7791   -4.6639    2.7432 C.3       1 <0>         0.0859
     11 C10         1.7995   -6.1938    2.7343 C.3       1 <0>         0.0297
     12 O1          1.9364   -6.6761    4.0724 O.3       1 <0>        -0.2970
     13 C11         1.9716   -8.0239    4.2417 C.ar      1 <0>         0.1686
     14 C12         1.8828   -8.8646    3.1489 C.ar      1 <0>        -0.2421
     15 C13         1.9190  -10.2411    3.3196 C.ar      1 <0>        -0.0617
     16 C14         2.0432  -10.7914    4.5763 C.ar      1 <0>        -0.1567
     17 C15         2.1343   -9.9651    5.6926 C.ar      1 <0>         0.1319
     18 C16         2.1039   -8.5698    5.5242 C.ar      1 <0>        -0.1321
     19 C17         2.2260   -7.9961    6.8665 C.2       1 <0>        -0.1883
     20 C18         2.3240   -9.0233    7.7247 C.2       1 <0>         0.0490
     21 N2          2.2626  -10.2086    7.0417 N.pl3     1 <0>        -0.5917
     22 H1          2.3125  -11.0885    7.4469 H         1 <0>         0.4218
     23 O2          3.0431   -4.1733    3.1945 O.3       1 <0>        -0.5433
     24 F1          3.5766   -0.6299   -0.0360 F         1 <0>        -0.1325
     25 H2         -0.9594    1.9048    0.0260 H         1 <0>         0.1456
     26 H3          1.1547    3.1665    0.0077 H         1 <0>         0.1483
     27 H4          3.3046    1.9675   -0.0193 H         1 <0>         0.1504
     28 H5         -0.9259   -0.5565    0.0083 H         1 <0>         0.1448
     29 H6          0.2640   -2.5604   -0.3662 H         1 <0>         0.1463
     30 H7          2.0136   -2.5351   -0.6922 H         1 <0>         0.1405
     31 H8          2.3809   -2.3340    1.6554 H         1 <0>         0.4327
     32 H9          0.5438   -4.5234    0.9839 H         1 <0>         0.1491
     33 H10         2.2935   -4.4982    0.6578 H         1 <0>         0.1409
     34 H11         0.9936   -4.3149    3.4135 H         1 <0>         0.1356
     35 H12         0.8689   -6.5670    2.3069 H         1 <0>         0.0821
     36 H13         2.6403   -6.5424    2.1346 H         1 <0>         0.0772
     37 H14         1.7844   -8.4484    2.1572 H         1 <0>         0.1241
     38 H15         1.8488  -10.8882    2.4577 H         1 <0>         0.1312
     39 H16         2.0694  -11.8645    4.6955 H         1 <0>         0.1259
     40 H17         2.2359   -6.9458    7.1178 H         1 <0>         0.1484
     41 H18         2.4266   -8.9291    8.7957 H         1 <0>         0.1756
     42 H19         3.7900   -4.4455    2.6439 H         1 <0>         0.3903
     43 H20         0.7612   -2.3573    1.9572 H         1 <0>         0.4310
@<TRIPOS>BOND
     1    1    6 ar
     2    1    2 ar
     3    1   25 1
     4    2    3 ar
     5    2   26 1
     6    3    4 ar
     7    3   27 1
     8    4    5 ar
     9    4   24 1
    10    5    6 ar
    11    5    7 1
    12    6   28 1
    13    7    8 1
    14    7   29 1
    15    7   30 1
    16    8    9 1
    17    8   31 1
    18    8   43 1
    19    9   10 1
    20    9   32 1
    21    9   33 1
    22   10   11 1
    23   10   23 1
    24   10   34 1
    25   11   12 1
    26   11   35 1
    27   11   36 1
    28   12   13 1
    29   13   18 ar
    30   13   14 ar
    31   14   15 ar
    32   14   37 1
    33   15   16 ar
    34   15   38 1
    35   16   17 ar
    36   16   39 1
    37   17   21 1
    38   17   18 ar
    39   18   19 1
    40   19   20 2
    41   19   40 1
    42   20   21 1
    43   20   41 1
    44   21   22 1
    45   23   42 1
@<TRIPOS>MOLECULE
CHEMBL493489
   77    80     0     0     0
SMALL
USER_CHARGES

@<TRIPOS>ATOM
      1 C1         -0.0264    1.3610   -0.0186 C.ar      1 <0>        -0.1038
      2 C2          1.1561    2.0780   -0.0233 C.ar      1 <0>        -0.1191
      3 C3          2.3703    1.4116   -0.0291 C.ar      1 <0>         0.1018
      4 C4          2.3965    0.0185   -0.0303 C.ar      1 <0>         0.1235
      5 C5          1.2066   -0.6937   -0.0255 C.ar      1 <0>        -0.0924
      6 C6         -0.0011   -0.0211   -0.0197 C.ar      1 <0>        -0.1336
      7 C7         -1.2933   -0.7965   -0.0141 C.3       1 <0>         0.1378
      8 C8         -1.8022   -0.9501   -1.4488 C.3       1 <0>        -0.0428
      9 N1         -3.0618   -1.7060   -1.4432 N.4       1 <0>        -0.5042
     10 C9         -3.5504   -1.8534   -2.8207 C.3       1 <0>        -0.0006
     11 C10        -4.8623   -2.6407   -2.8150 C.3       1 <0>         0.0276
     12 O1         -5.8679   -1.8858   -2.1360 O.3       1 <0>        -0.3917
     13 C11        -7.1393   -2.5350   -2.0739 C.3       1 <0>         0.0683
     14 C12        -8.1328   -1.6408   -1.3294 C.3       1 <0>         0.0600
     15 O2         -8.3546   -0.4461   -2.0815 O.3       1 <0>        -0.3802
     16 C13        -9.2723    0.4632   -1.4707 C.3       1 <0>         0.0469
     17 C14        -9.4325    1.6992   -2.3582 C.3       1 <0>         0.1328
     18 N2        -10.0562    1.3124   -3.6261 N.pl3     1 <0>        -0.6921
     19 C15       -10.3035    2.2684   -4.5956 C.ar      1 <0>         0.5049
     20 C16       -10.9064    1.9163   -5.8154 C.ar      1 <0>        -0.1058
     21 C17       -11.1321    2.9307   -6.7609 C.ar      1 <0>         0.3130
     22 N3        -10.7709    4.1765   -6.4704 N.ar      1 <0>        -0.5463
     23 C18       -10.2094    4.4599   -5.3142 C.ar      1 <0>         0.3639
     24 N4         -9.9815    3.5416   -4.3927 N.ar      1 <0>        -0.5895
     25 N5        -11.7207    2.3191   -7.8387 N.pl3     1 <0>        -0.4700
     26 C19       -11.8387    0.9938   -7.5423 C.2       1 <0>         0.2653
     27 N6        -11.3603    0.7596   -6.3549 N.2       1 <0>        -0.4632
     28 C20       -12.1450    2.9708   -9.0802 C.3       1 <0>         0.3126
     29 H1        -12.5276    3.9700   -8.8718 H         1 <0>         0.1239
     30 C21       -10.9688    3.0428  -10.0790 C.3       1 <0>         0.0806
     31 H2        -10.2374    2.2636   -9.8646 H         1 <0>         0.0836
     32 C22       -11.6292    2.8017  -11.4549 C.3       1 <0>         0.0475
     33 H3        -11.2244    1.9032  -11.9206 H         1 <0>         0.0868
     34 C23       -13.1264    2.6125  -11.1246 C.3       1 <0>         0.0502
     35 H4        -13.6607    3.5566  -11.2312 H         1 <0>         0.1013
     36 O3        -13.1502    2.1765   -9.7469 O.3       1 <0>        -0.3469
     37 C24       -13.7421    1.5475  -12.0342 C.3       1 <0>         0.0822
     38 O4        -15.1485    1.4704  -11.7933 O.3       1 <0>        -0.5634
     39 O5        -11.4406    3.9339  -12.3061 O.3       1 <0>        -0.5387
     40 O6        -10.3528    4.3315  -10.0352 O.3       1 <0>        -0.5254
     41 O7         -2.2659   -0.0958    0.7639 O.3       1 <0>        -0.5458
     42 N7          3.6219   -0.6610   -0.0366 N.am      1 <0>        -0.6778
     43 C25         3.7486   -1.8284    0.6250 C.2       1 <0>         0.4953
     44 O8          2.7820   -2.3314    1.1580 O.2       1 <0>        -0.5356
     45 O9          3.5339    2.1152   -0.0342 O.3       1 <0>        -0.4925
     46 H5         -0.9723    1.8823   -0.0096 H         1 <0>         0.1293
     47 H6          1.1328    3.1578   -0.0228 H         1 <0>         0.1425
     48 H7          1.2234   -1.7736   -0.0267 H         1 <0>         0.1483
     49 H8         -1.1236   -1.7824    0.4188 H         1 <0>         0.1330
     50 H9         -1.9720    0.0358   -1.8816 H         1 <0>         0.1383
     51 H10        -1.0603   -1.4846   -2.0421 H         1 <0>         0.1440
     52 H11        -2.9047   -2.6186   -1.0426 H         1 <0>         0.4274
     53 H12        -3.7202   -0.8676   -3.2536 H         1 <0>         0.1405
     54 H13        -2.8085   -2.3879   -3.4141 H         1 <0>         0.1451
     55 H14        -5.1788   -2.8269   -3.8413 H         1 <0>         0.0990
     56 H15        -4.7135   -3.5911   -2.3025 H         1 <0>         0.0753
     57 H16        -7.5031   -2.7191   -3.0849 H         1 <0>         0.0710
     58 H17        -7.0377   -3.4833   -1.5461 H         1 <0>         0.0746
     59 H18        -9.0764   -2.1718   -1.2042 H         1 <0>         0.0745
     60 H19        -7.7277   -1.3840   -0.3506 H         1 <0>         0.0611
     61 H20       -10.2396   -0.0241   -1.3483 H         1 <0>         0.0611
     62 H21        -8.8908    0.7637   -0.4948 H         1 <0>         0.0718
     63 H22       -10.0621    2.4309   -1.8519 H         1 <0>         0.0884
     64 H23        -8.4530    2.1357   -2.5534 H         1 <0>         0.0782
     65 H24       -10.2958    0.3861   -3.7860 H         1 <0>         0.4193
     66 H25        -9.9276    5.4823   -5.1100 H         1 <0>         0.2055
     67 H26       -12.2660    0.2482   -8.1964 H         1 <0>         0.2232
     68 H27       -13.5660    1.8138  -13.0764 H         1 <0>         0.0679
     69 H28       -13.2840    0.5810  -11.8238 H         1 <0>         0.0603
     70 H29       -15.6053    0.8138  -12.3367 H         1 <0>         0.3879
     71 H30       -11.8355    3.8364  -13.1834 H         1 <0>         0.3889
     72 H31        -9.6076    4.4322  -10.6431 H         1 <0>         0.3909
     73 H32        -2.4670    0.7914    0.4359 H         1 <0>         0.3884
     74 H33         4.3791   -0.2913   -0.5172 H         1 <0>         0.4224
     75 H34         4.7107   -2.3160    0.6806 H         1 <0>         0.1547
     76 H35         3.8745    2.3184    0.8477 H         1 <0>         0.3997
     77 H36        -3.7485   -1.2112   -0.8940 H         1 <0>         0.4388
@<TRIPOS>BOND
     1    1    6 ar
     2    1    2 ar
     3    1   46 1
     4    2    3 ar
     5    2   47 1
     6    3    4 ar
     7    3   45 1
     8    4    5 ar
     9    4   42 1
    10    5    6 ar
    11    5   48 1
    12    6    7 1
    13    7    8 1
    14    7   41 1
    15    7   49 1
    16    8    9 1
    17    8   50 1
    18    8   51 1
    19    9   10 1
    20    9   52 1
    21    9   77 1
    22   10   11 1
    23   10   53 1
    24   10   54 1
    25   11   12 1
    26   11   55 1
    27   11   56 1
    28   12   13 1
    29   13   14 1
    30   13   57 1
    31   13   58 1
    32   14   15 1
    33   14   59 1
    34   14   60 1
    35   15   16 1
    36   16   17 1
    37   16   61 1
    38   16   62 1
    39   17   18 1
    40   17   63 1
    41   17   64 1
    42   18   19 1
    43   18   65 1
    44   19   24 ar
    45   19   20 ar
    46   20   27 1
    47   20   21 ar
    48   21   22 ar
    49   21   25 1
    50   22   23 ar
    51   23   24 ar
    52   23   66 1
    53   25   26 1
    54   25   28 1
    55   26   27 2
    56   26   67 1
    57   28   29 1
    58   28   36 1
    59   28   30 1
    60   30   31 1
    61   30   32 1
    62   30   40 1
    63   32   33 1
    64   32   34 1
    65   32   39 1
    66   34   35 1
    67   34   36 1
    68   34   37 1
    69   37   38 1
    70   37   68 1
    71   37   69 1
    72   38   70 1
    73   39   71 1
    74   40   72 1
    75   41   73 1
    76   42   43 am
    77   42   74 1
    78   43   44 2
    79   43   75 1
    80   45   76 1
@<TRIPOS>MOLECULE
CHEMBL493489
   76    79     0     0     0
SMALL
USER_CHARGES

@<TRIPOS>ATOM
      1 C1         -0.0264    1.3610   -0.0186 C.ar      1 <0>        -0.1070
      2 C2          1.1561    2.0780   -0.0233 C.ar      1 <0>        -0.1216
      3 C3          2.3703    1.4116   -0.0291 C.ar      1 <0>         0.0796
      4 C4          2.3965    0.0185   -0.0303 C.ar      1 <0>         0.1174
      5 C5          1.2066   -0.6937   -0.0255 C.ar      1 <0>        -0.0978
      6 C6         -0.0011   -0.0211   -0.0197 C.ar      1 <0>        -0.1072
      7 C7         -1.2933   -0.7965   -0.0141 C.3       1 <0>         0.1552
      8 C8         -1.8022   -0.9501   -1.4488 C.3       1 <0>         0.0325
      9 N1         -3.0618   -1.7060   -1.4432 N.3       1 <0>        -0.6700
     10 C9         -3.5813   -1.8734   -2.8071 C.3       1 <0>         0.0609
     11 C10        -4.8907   -2.6634   -2.7607 C.3       1 <0>         0.0657
     12 O1         -5.8824   -1.9016   -2.0693 O.3       1 <0>        -0.3606
     13 C11        -7.1505   -2.5527   -1.9694 C.3       1 <0>         0.0630
     14 C12        -8.1290   -1.6506   -1.2147 C.3       1 <0>         0.0660
     15 O2         -8.3710   -0.4669   -1.9777 O.3       1 <0>        -0.3765
     16 C13        -9.2768    0.4487   -1.3586 C.3       1 <0>         0.0468
     17 C14        -9.4604    1.6720   -2.2590 C.3       1 <0>         0.1311
     18 N2        -10.1118    1.2664   -3.5070 N.pl3     1 <0>        -0.6864
     19 C15       -10.3836    2.2086   -4.4836 C.ar      1 <0>         0.5078
     20 C16       -11.0132    1.8385   -5.6844 C.ar      1 <0>        -0.1072
     21 C17       -11.2629    2.8393   -6.6382 C.ar      1 <0>         0.3134
     22 N3        -10.8984    4.0898   -6.3730 N.ar      1 <0>        -0.5524
     23 C18       -10.3114    4.3902   -5.2339 C.ar      1 <0>         0.3655
     24 N4        -10.0603    3.4851   -4.3055 N.ar      1 <0>        -0.5892
     25 N5        -11.8743    2.2116   -7.6939 N.pl3     1 <0>        -0.4719
     26 C19       -11.9822    0.8903   -7.3768 C.2       1 <0>         0.2595
     27 N6        -11.4763    0.6734   -6.1975 N.2       1 <0>        -0.4588
     28 C20       -12.3285    2.8454   -8.9342 C.3       1 <0>         0.3145
     29 H1        -12.7088    3.8464   -8.7308 H         1 <0>         0.1227
     30 C21       -11.1755    2.9063   -9.9604 C.3       1 <0>         0.0797
     31 H2        -10.4375    2.1317   -9.7521 H         1 <0>         0.0851
     32 C22       -11.8665    2.6449  -11.3174 C.3       1 <0>         0.0472
     33 H3        -11.4701    1.7410  -11.7800 H         1 <0>         0.0867
     34 C23       -13.3553    2.4569  -10.9505 C.3       1 <0>         0.0505
     35 H4        -13.8943    3.3982  -11.0578 H         1 <0>         0.1000
     36 O3        -13.3466    2.0397   -9.5668 O.3       1 <0>        -0.3470
     37 C24       -13.9888    1.3781  -11.8313 C.3       1 <0>         0.0821
     38 O4        -15.3892    1.3012  -11.5573 O.3       1 <0>        -0.5634
     39 O5        -11.7002    3.7657  -12.1881 O.3       1 <0>        -0.5387
     40 O6        -10.5620    4.1969   -9.9482 O.3       1 <0>        -0.5251
     41 O7         -2.2659   -0.0958    0.7639 O.3       1 <0>        -0.5377
     42 N7          3.6219   -0.6610   -0.0366 N.am      1 <0>        -0.6762
     43 C25         3.7486   -1.8284    0.6250 C.2       1 <0>         0.4899
     44 O8          2.7820   -2.3314    1.1580 O.2       1 <0>        -0.5326
     45 O9          3.5339    2.1152   -0.0342 O.3       1 <0>        -0.4950
     46 H5         -0.9723    1.8823   -0.0096 H         1 <0>         0.1289
     47 H6          1.1328    3.1578   -0.0228 H         1 <0>         0.1356
     48 H7          1.2234   -1.7736   -0.0267 H         1 <0>         0.1440
     49 H8         -1.1236   -1.7824    0.4188 H         1 <0>         0.1065
     50 H9         -1.9720    0.0358   -1.8816 H         1 <0>         0.0786
     51 H10        -1.0603   -1.4846   -2.0421 H         1 <0>         0.0385
     52 H11        -2.9456   -2.5991   -0.9884 H         1 <0>         0.3406
     53 H12        -3.7634   -0.8939   -3.2493 H         1 <0>         0.0821
     54 H13        -2.8517   -2.4143   -3.4099 H         1 <0>         0.0432
     55 H14        -5.2300   -2.8644   -3.7769 H         1 <0>         0.0526
     56 H15        -4.7278   -3.6064   -2.2389 H         1 <0>         0.0466
     57 H16        -7.5367   -2.7514   -2.9692 H         1 <0>         0.0543
     58 H17        -7.0345   -3.4934   -1.4312 H         1 <0>         0.0623
     59 H18        -9.0682   -2.1820   -1.0607 H         1 <0>         0.0630
     60 H19        -7.7024   -1.3796   -0.2490 H         1 <0>         0.0616
     61 H20       -10.2398   -0.0391   -1.2076 H         1 <0>         0.0555
     62 H21        -8.8740    0.7633   -0.3959 H         1 <0>         0.0711
     63 H22       -10.0801    2.4091   -1.7485 H         1 <0>         0.0863
     64 H23        -8.4867    2.1080   -2.4825 H         1 <0>         0.0815
     65 H24       -10.3527    0.3376   -3.6488 H         1 <0>         0.4200
     66 H25       -10.0277    5.4159   -5.0501 H         1 <0>         0.2045
     67 H26       -12.4224    0.1348   -8.0108 H         1 <0>         0.2218
     68 H27       -13.8372    1.6306  -12.8807 H         1 <0>         0.0668
     69 H28       -13.5235    0.4157  -11.6183 H         1 <0>         0.0609
     70 H29       -15.8565    0.6362  -12.0812 H         1 <0>         0.3866
     71 H30       -12.1147    3.6554  -13.0548 H         1 <0>         0.3871
     72 H31        -9.8311    4.2909  -10.5743 H         1 <0>         0.3903
     73 H32        -2.4670    0.7914    0.4359 H         1 <0>         0.3730
     74 H33         4.3791   -0.2913   -0.5172 H         1 <0>         0.4176
     75 H34         4.7107   -2.3160    0.6806 H         1 <0>         0.1481
     76 H35         3.8745    2.3184    0.8477 H         1 <0>         0.3903
@<TRIPOS>BOND
     1    1    6 ar
     2    1    2 ar
     3    1   46 1
     4    2    3 ar
     5    2   47 1
     6    3    4 ar
     7    3   45 1
     8    4    5 ar
     9    4   42 1
    10    5    6 ar
    11    5   48 1
    12    6    7 1
    13    7    8 1
    14    7   41 1
    15    7   49 1
    16    8    9 1
    17    8   50 1
    18    8   51 1
    19    9   10 1
    20    9   52 1
    21   10   11 1
    22   10   53 1
    23   10   54 1
    24   11   12 1
    25   11   55 1
    26   11   56 1
    27   12   13 1
    28   13   14 1
    29   13   57 1
    30   13   58 1
    31   14   15 1
    32   14   59 1
    33   14   60 1
    34   15   16 1
    35   16   17 1
    36   16   61 1
    37   16   62 1
    38   17   18 1
    39   17   63 1
    40   17   64 1
    41   18   19 1
    42   18   65 1
    43   19   24 ar
    44   19   20 ar
    45   20   27 1
    46   20   21 ar
    47   21   22 ar
    48   21   25 1
    49   22   23 ar
    50   23   24 ar
    51   23   66 1
    52   25   26 1
    53   25   28 1
    54   26   27 2
    55   26   67 1
    56   28   29 1
    57   28   36 1
    58   28   30 1
    59   30   31 1
    60   30   32 1
    61   30   40 1
    62   32   33 1
    63   32   34 1
    64   32   39 1
    65   34   35 1
    66   34   36 1
    67   34   37 1
    68   37   38 1
    69   37   68 1
    70   37   69 1
    71   38   70 1
    72   39   71 1
    73   40   72 1
    74   41   73 1
    75   42   43 am
    76   42   74 1
    77   43   44 2
    78   43   75 1
    79   45   76 1
@<TRIPOS>MOLECULE
CHEMBL493489
   77    80     0     0     0
SMALL
USER_CHARGES

@<TRIPOS>ATOM
      1 C1         -0.0264    1.3610   -0.0186 C.ar      1 <0>        -0.1052
      2 C2          1.1561    2.0780   -0.0233 C.ar      1 <0>        -0.1199
      3 C3          2.3703    1.4116   -0.0291 C.ar      1 <0>         0.1020
      4 C4          2.3965    0.0185   -0.0303 C.ar      1 <0>         0.1240
      5 C5          1.2066   -0.6937   -0.0255 C.ar      1 <0>        -0.0900
      6 C6         -0.0011   -0.0211   -0.0197 C.ar      1 <0>        -0.1334
      7 C7         -1.2933   -0.7965   -0.0141 C.3       1 <0>         0.1385
      8 C8         -1.8527   -0.8451    1.4092 C.3       1 <0>        -0.0424
      9 N1         -3.0469   -1.7001    1.4370 N.4       1 <0>        -0.5042
     10 C9         -3.5840   -1.7468    2.8035 C.3       1 <0>        -0.0007
     11 C10        -4.8278   -2.6373    2.8325 C.3       1 <0>         0.0280
     12 O1         -4.4575   -3.9829    2.5257 O.3       1 <0>        -0.3919
     13 C11        -5.5521   -4.9015    2.5262 C.3       1 <0>         0.0683
     14 C12        -5.0416   -6.3034    2.1871 C.3       1 <0>         0.0600
     15 O2         -4.1680   -6.7558    3.2235 O.3       1 <0>        -0.3799
     16 C13        -3.6328   -8.0624    3.0034 C.3       1 <0>         0.0471
     17 C14        -2.7170   -8.4414    4.1690 C.3       1 <0>         0.1324
     18 N2         -3.5085   -8.5485    5.3971 N.pl3     1 <0>        -0.6918
     19 C15        -2.8925   -8.8830    6.5903 C.ar      1 <0>         0.5050
     20 C16        -3.6371   -8.9960    7.7770 C.ar      1 <0>        -0.1060
     21 C17        -2.9561   -9.3384    8.9572 C.ar      1 <0>         0.3131
     22 N3         -1.6434   -9.5419    8.9098 N.ar      1 <0>        -0.5466
     23 C18        -0.9870   -9.4252    7.7749 C.ar      1 <0>         0.3641
     24 N4         -1.5842   -9.1102    6.6397 N.ar      1 <0>        -0.5893
     25 N5         -3.9075   -9.3782    9.9449 N.pl3     1 <0>        -0.4702
     26 C19        -5.1053   -9.0712    9.3711 C.2       1 <0>         0.2650
     27 N6         -4.9444   -8.8473    8.0992 N.2       1 <0>        -0.4631
     28 C20        -3.6783   -9.6934   11.3571 C.3       1 <0>         0.3127
     29 H1         -2.9036  -10.4540   11.4545 H         1 <0>         0.1239
     30 C21        -3.2817   -8.4191   12.1350 C.3       1 <0>         0.0805
     31 H2         -3.6531   -7.5297   11.6259 H         1 <0>         0.0837
     32 C22        -3.9730   -8.5861   13.5067 C.3       1 <0>         0.0475
     33 H3         -4.6862   -7.7793   13.6757 H         1 <0>         0.0868
     34 C23        -4.7056   -9.9416   13.3952 C.3       1 <0>         0.0502
     35 H4         -4.0893  -10.7409   13.8068 H         1 <0>         0.1012
     36 O3         -4.9032  -10.1411   11.9776 O.3       1 <0>        -0.3469
     37 C24        -6.0514   -9.8809   14.1204 C.3       1 <0>         0.0822
     38 O4         -6.6592  -11.1742   14.1057 O.3       1 <0>        -0.5633
     39 O5         -3.0028   -8.6229   14.5552 O.3       1 <0>        -0.5387
     40 O6         -1.8630   -8.3492   12.2915 O.3       1 <0>        -0.5253
     41 O7         -2.2369   -0.1560   -0.8751 O.3       1 <0>        -0.5463
     42 N7          3.6219   -0.6610   -0.0366 N.am      1 <0>        -0.6768
     43 C25         3.7486   -1.8284    0.6250 C.2       1 <0>         0.4978
     44 O8          2.7820   -2.3314    1.1580 O.2       1 <0>        -0.5402
     45 O9          3.5339    2.1152   -0.0342 O.3       1 <0>        -0.4911
     46 H5         -0.9723    1.8823   -0.0096 H         1 <0>         0.1284
     47 H6          1.1328    3.1578   -0.0228 H         1 <0>         0.1422
     48 H7          1.2234   -1.7736   -0.0267 H         1 <0>         0.1493
     49 H8         -1.1097   -1.8112   -0.3671 H         1 <0>         0.1317
     50 H9         -1.0984   -1.2525    2.0823 H         1 <0>         0.1463
     51 H10        -2.1194    0.1621    1.7294 H         1 <0>         0.1370
     52 H11        -3.7452   -1.3229    0.8139 H         1 <0>         0.4295
     53 H12        -2.8297   -2.1542    3.4766 H         1 <0>         0.1412
     54 H13        -3.8507   -0.7396    3.1237 H         1 <0>         0.1446
     55 H14        -5.2773   -2.6014    3.8248 H         1 <0>         0.0989
     56 H15        -5.5469   -2.2811    2.0948 H         1 <0>         0.0752
     57 H16        -6.0167   -4.9126    3.5122 H         1 <0>         0.0711
     58 H17        -6.2863   -4.5923    1.7822 H         1 <0>         0.0747
     59 H18        -5.8865   -6.9866    2.1002 H         1 <0>         0.0745
     60 H19        -4.4995   -6.2739    1.2420 H         1 <0>         0.0606
     61 H20        -4.4485   -8.7821    2.9334 H         1 <0>         0.0611
     62 H21        -3.0614   -8.0694    2.0752 H         1 <0>         0.0717
     63 H22        -2.2397   -9.3987    3.9596 H         1 <0>         0.0885
     64 H23        -1.9529   -7.6743    4.2950 H         1 <0>         0.0786
     65 H24        -4.4643   -8.3850    5.3739 H         1 <0>         0.4192
     66 H25         0.0792   -9.5970    7.7711 H         1 <0>         0.2056
     67 H26        -6.0485   -9.0212    9.8947 H         1 <0>         0.2231
     68 H27        -5.8945   -9.5649   15.1517 H         1 <0>         0.0679
     69 H28        -6.7036   -9.1672   13.6169 H         1 <0>         0.0603
     70 H29        -7.5178  -11.2103   14.5489 H         1 <0>         0.3878
     71 H30        -3.3822   -8.7265   15.4386 H         1 <0>         0.3888
     72 H31        -1.5585   -7.5680   12.7733 H         1 <0>         0.3908
     73 H32        -2.4483    0.7526   -0.6204 H         1 <0>         0.3878
     74 H33         4.3791   -0.2913   -0.5172 H         1 <0>         0.4232
     75 H34         4.7107   -2.3160    0.6806 H         1 <0>         0.1549
     76 H35         3.8745    2.3184    0.8477 H         1 <0>         0.3982
     77 H36        -2.8000   -2.6324    1.1406 H         1 <0>         0.4363
@<TRIPOS>BOND
     1    1    6 ar
     2    1    2 ar
     3    1   46 1
     4    2    3 ar
     5    2   47 1
     6    3    4 ar
     7    3   45 1
     8    4    5 ar
     9    4   42 1
    10    5    6 ar
    11    5   48 1
    12    6    7 1
    13    7    8 1
    14    7   41 1
    15    7   49 1
    16    8    9 1
    17    8   50 1
    18    8   51 1
    19    9   10 1
    20    9   52 1
    21    9   77 1
    22   10   11 1
    23   10   53 1
    24   10   54 1
    25   11   12 1
    26   11   55 1
    27   11   56 1
    28   12   13 1
    29   13   14 1
    30   13   57 1
    31   13   58 1
    32   14   15 1
    33   14   59 1
    34   14   60 1
    35   15   16 1
    36   16   17 1
    37   16   61 1
    38   16   62 1
    39   17   18 1
    40   17   63 1
    41   17   64 1
    42   18   19 1
    43   18   65 1
    44   19   24 ar
    45   19   20 ar
    46   20   27 1
    47   20   21 ar
    48   21   22 ar
    49   21   25 1
    50   22   23 ar
    51   23   24 ar
    52   23   66 1
    53   25   26 1
    54   25   28 1
    55   26   27 2
    56   26   67 1
    57   28   29 1
    58   28   36 1
    59   28   30 1
    60   30   31 1
    61   30   32 1
    62   30   40 1
    63   32   33 1
    64   32   34 1
    65   32   39 1
    66   34   35 1
    67   34   36 1
    68   34   37 1
    69   37   38 1
    70   37   68 1
    71   37   69 1
    72   38   70 1
    73   39   71 1
    74   40   72 1
    75   41   73 1
    76   42   43 am
    77   42   74 1
    78   43   44 2
    79   43   75 1
    80   45   76 1
@<TRIPOS>MOLECULE
CHEMBL493489
   76    79     0     0     0
SMALL
USER_CHARGES

@<TRIPOS>ATOM
      1 C1         -0.0264    1.3610   -0.0186 C.ar      1 <0>        -0.1106
      2 C2          1.1561    2.0780   -0.0233 C.ar      1 <0>        -0.1226
      3 C3          2.3703    1.4116   -0.0291 C.ar      1 <0>         0.0796
      4 C4          2.3965    0.0185   -0.0303 C.ar      1 <0>         0.1193
      5 C5          1.2066   -0.6937   -0.0255 C.ar      1 <0>        -0.0939
      6 C6         -0.0011   -0.0211   -0.0197 C.ar      1 <0>        -0.1062
      7 C7         -1.2933   -0.7965   -0.0141 C.3       1 <0>         0.1526
      8 C8         -1.8527   -0.8451    1.4092 C.3       1 <0>         0.0350
      9 N1         -3.0469   -1.7001    1.4370 N.3       1 <0>        -0.6754
     10 C9         -3.6125   -1.7705    2.7909 C.3       1 <0>         0.0610
     11 C10        -4.8518   -2.6677    2.7799 C.3       1 <0>         0.0657
     12 O1         -4.4678   -4.0066    2.4605 O.3       1 <0>        -0.3614
     13 C11        -5.5571   -4.9307    2.4238 C.3       1 <0>         0.0629
     14 C12        -5.0319   -6.3245    2.0743 C.3       1 <0>         0.0658
     15 O2         -4.1780   -6.7883    3.1220 O.3       1 <0>        -0.3762
     16 C13        -3.6312   -8.0886    2.8934 C.3       1 <0>         0.0469
     17 C14        -2.7381   -8.4808    4.0723 C.3       1 <0>         0.1307
     18 N2         -3.5549   -8.6108    5.2815 N.pl3     1 <0>        -0.6861
     19 C15        -2.9624   -8.9604    6.4823 C.ar      1 <0>         0.5078
     20 C16        -3.7313   -9.0954    7.6511 C.ar      1 <0>        -0.1074
     21 C17        -3.0736   -9.4524    8.8401 C.ar      1 <0>         0.3136
     22 N3         -1.7591   -9.6484    8.8175 N.ar      1 <0>        -0.5526
     23 C18        -1.0795   -9.5110    7.6987 C.ar      1 <0>         0.3657
     24 N4         -1.6542   -9.1817    6.5560 N.ar      1 <0>        -0.5890
     25 N5         -4.0455   -9.5123    9.8066 N.pl3     1 <0>        -0.4719
     26 C19        -5.2325   -9.2027    9.2123 C.2       1 <0>         0.2592
     27 N6         -5.0460   -8.9584    7.9476 N.2       1 <0>        -0.4587
     28 C20        -3.8445   -9.8480   11.2184 C.3       1 <0>         0.3145
     29 H1         -3.0679  -10.6060   11.3206 H         1 <0>         0.1227
     30 C21        -3.4714   -8.5837   12.0239 C.3       1 <0>         0.0796
     31 H2         -3.8368   -7.6886   11.5207 H         1 <0>         0.0851
     32 C22        -4.1907   -8.7754   13.3779 C.3       1 <0>         0.0472
     33 H3         -4.9117   -7.9749   13.5440 H         1 <0>         0.0867
     34 C23        -4.9133  -10.1327   13.2302 C.3       1 <0>         0.0505
     35 H4         -4.3015  -10.9351   13.6426 H         1 <0>         0.1000
     36 O3         -5.0798  -10.3114   11.8058 O.3       1 <0>        -0.3470
     37 C24        -6.2745  -10.0901   13.9275 C.3       1 <0>         0.0822
     38 O4         -6.8748  -11.3860   13.8801 O.3       1 <0>        -0.5634
     39 O5         -3.2427   -8.8233   14.4461 O.3       1 <0>        -0.5387
     40 O6         -2.0567   -8.5089   12.2115 O.3       1 <0>        -0.5250
     41 O7         -2.2369   -0.1560   -0.8751 O.3       1 <0>        -0.5508
     42 N7          3.6219   -0.6610   -0.0366 N.am      1 <0>        -0.6767
     43 C25         3.7486   -1.8284    0.6250 C.2       1 <0>         0.4896
     44 O8          2.7820   -2.3314    1.1580 O.2       1 <0>        -0.5301
     45 O9          3.5339    2.1152   -0.0342 O.3       1 <0>        -0.4946
     46 H5         -0.9723    1.8823   -0.0096 H         1 <0>         0.1251
     47 H6          1.1328    3.1578   -0.0228 H         1 <0>         0.1346
     48 H7          1.2234   -1.7736   -0.0267 H         1 <0>         0.1472
     49 H8         -1.1097   -1.8112   -0.3671 H         1 <0>         0.1194
     50 H9         -1.0984   -1.2525    2.0823 H         1 <0>         0.0854
     51 H10        -2.1194    0.1621    1.7294 H         1 <0>         0.0323
     52 H11        -3.7363   -1.3801    0.7733 H         1 <0>         0.3452
     53 H12        -2.8704   -2.1844    3.4736 H         1 <0>         0.0826
     54 H13        -3.8915   -0.7697    3.1207 H         1 <0>         0.0433
     55 H14        -5.3224   -2.6494    3.7629 H         1 <0>         0.0529
     56 H15        -5.5571   -2.3040    2.0326 H         1 <0>         0.0469
     57 H16        -6.0424   -4.9593    3.3994 H         1 <0>         0.0547
     58 H17        -6.2770   -4.6139    1.6691 H         1 <0>         0.0624
     59 H18        -5.8711   -7.0106    1.9590 H         1 <0>         0.0632
     60 H19        -4.4701   -6.2778    1.1414 H         1 <0>         0.0610
     61 H20        -4.4412   -8.8113    2.7951 H         1 <0>         0.0556
     62 H21        -3.0402   -8.0784    1.9776 H         1 <0>         0.0709
     63 H22        -2.2513   -9.4323    3.8585 H         1 <0>         0.0864
     64 H23        -1.9811   -7.7118    4.2261 H         1 <0>         0.0820
     65 H24        -4.5109   -8.4519    5.2405 H         1 <0>         0.4200
     66 H25        -0.0125   -9.6772    7.7150 H         1 <0>         0.2045
     67 H26        -6.1869   -9.1656    9.7164 H         1 <0>         0.2217
     68 H27        -6.1412   -9.7891   14.9666 H         1 <0>         0.0668
     69 H28        -6.9197   -9.3721   13.4212 H         1 <0>         0.0608
     70 H29        -7.7424  -11.4334   14.3044 H         1 <0>         0.3865
     71 H30        -3.6401   -8.9423   15.3196 H         1 <0>         0.3870
     72 H31        -1.7667   -7.7338   12.7116 H         1 <0>         0.3902
     73 H32        -2.4483    0.7526   -0.6204 H         1 <0>         0.3701
     74 H33         4.3791   -0.2913   -0.5172 H         1 <0>         0.4176
     75 H34         4.7107   -2.3160    0.6806 H         1 <0>         0.1484
     76 H35         3.8745    2.3184    0.8477 H         1 <0>         0.3899
@<TRIPOS>BOND
     1    1    6 ar
     2    1    2 ar
     3    1   46 1
     4    2    3 ar
     5    2   47 1
     6    3    4 ar
     7    3   45 1
     8    4    5 ar
     9    4   42 1
    10    5    6 ar
    11    5   48 1
    12    6    7 1
    13    7    8 1
    14    7   41 1
    15    7   49 1
    16    8    9 1
    17    8   50 1
    18    8   51 1
    19    9   10 1
    20    9   52 1
    21   10   11 1
    22   10   53 1
    23   10   54 1
    24   11   12 1
    25   11   55 1
    26   11   56 1
    27   12   13 1
    28   13   14 1
    29   13   57 1
    30   13   58 1
    31   14   15 1
    32   14   59 1
    33   14   60 1
    34   15   16 1
    35   16   17 1
    36   16   61 1
    37   16   62 1
    38   17   18 1
    39   17   63 1
    40   17   64 1
    41   18   19 1
    42   18   65 1
    43   19   24 ar
    44   19   20 ar
    45   20   27 1
    46   20   21 ar
    47   21   22 ar
    48   21   25 1
    49   22   23 ar
    50   23   24 ar
    51   23   66 1
    52   25   26 1
    53   25   28 1
    54   26   27 2
    55   26   67 1
    56   28   29 1
    57   28   36 1
    58   28   30 1
    59   30   31 1
    60   30   32 1
    61   30   40 1
    62   32   33 1
    63   32   34 1
    64   32   39 1
    65   34   35 1
    66   34   36 1
    67   34   37 1
    68   37   38 1
    69   37   68 1
    70   37   69 1
    71   38   70 1
    72   39   71 1
    73   40   72 1
    74   41   73 1
    75   42   43 am
    76   42   74 1
    77   43   44 2
    78   43   75 1
    79   45   76 1
@<TRIPOS>MOLECULE
CHEMBL524037
   75    78     0     0     0
SMALL
USER_CHARGES

@<TRIPOS>ATOM
      1 C1         -0.0264    1.3610   -0.0186 C.ar      1 <0>        -0.1044
      2 C2          1.1561    2.0780   -0.0233 C.ar      1 <0>        -0.1193
      3 C3          2.3703    1.4116   -0.0291 C.ar      1 <0>         0.1020
      4 C4          2.3965    0.0185   -0.0303 C.ar      1 <0>         0.1242
      5 C5          1.2066   -0.6937   -0.0255 C.ar      1 <0>        -0.0923
      6 C6         -0.0011   -0.0211   -0.0197 C.ar      1 <0>        -0.1342
      7 C7         -1.2933   -0.7965   -0.0141 C.3       1 <0>         0.1371
      8 C8         -1.8022   -0.9501   -1.4488 C.3       1 <0>        -0.0421
      9 N1         -3.0618   -1.7060   -1.4432 N.4       1 <0>        -0.5058
     10 C9         -3.5504   -1.8534   -2.8207 C.3       1 <0>        -0.0104
     11 C10        -4.8623   -2.6407   -2.8150 C.3       1 <0>        -0.1507
     12 C11        -5.3712   -2.7943   -4.2497 C.3       1 <0>        -0.1171
     13 C12        -6.6831   -3.5815   -4.2440 C.3       1 <0>        -0.1163
     14 C13        -7.1920   -3.7352   -5.6786 C.3       1 <0>        -0.1355
     15 C14        -8.5039   -4.5224   -5.6729 C.3       1 <0>         0.1278
     16 N2         -8.9911   -4.6695   -7.0466 N.pl3     1 <0>        -0.6994
     17 C15       -10.1703   -5.3505   -7.2934 C.ar      1 <0>         0.5039
     18 C16       -10.6498   -5.5063   -8.6054 C.ar      1 <0>        -0.1057
     19 C17       -11.8527   -6.2073   -8.7931 C.ar      1 <0>         0.3128
     20 N3        -12.4888   -6.6944   -7.7324 N.ar      1 <0>        -0.5447
     21 C18       -12.0018   -6.5244   -6.5215 C.ar      1 <0>         0.3630
     22 N4        -10.8729   -5.8771   -6.2959 N.ar      1 <0>        -0.5882
     23 N5        -12.0824   -6.2091  -10.1456 N.pl3     1 <0>        -0.4698
     24 C19       -11.0549   -5.5350  -10.7355 C.2       1 <0>         0.2672
     25 N6        -10.2154   -5.1235   -9.8301 N.2       1 <0>        -0.4641
     26 C20       -13.2226   -6.8232  -10.8305 C.3       1 <0>         0.3126
     27 H1        -13.5138   -7.7458  -10.3285 H         1 <0>         0.1239
     28 C21       -14.4128   -5.8398  -10.8811 C.3       1 <0>         0.0800
     29 H2        -14.0615   -4.8107  -10.8054 H         1 <0>         0.0845
     30 C22       -15.0509   -6.0935  -12.2653 C.3       1 <0>         0.0475
     31 H3        -15.0150   -5.1899  -12.8738 H         1 <0>         0.0874
     32 C23       -14.1706   -7.2003  -12.8871 C.3       1 <0>         0.0504
     33 H4        -14.6078   -8.1815  -12.7023 H         1 <0>         0.1011
     34 O1        -12.8974   -7.0843  -12.2132 O.3       1 <0>        -0.3471
     35 C24       -14.0044   -6.9670  -14.3901 C.3       1 <0>         0.0819
     36 O2        -13.2868   -8.0607  -14.9654 O.3       1 <0>        -0.5637
     37 O3        -16.3990   -6.5447  -12.1201 O.3       1 <0>        -0.5386
     38 O4        -15.3448   -6.1275   -9.8368 O.3       1 <0>        -0.5258
     39 O5         -2.2659   -0.0958    0.7639 O.3       1 <0>        -0.5463
     40 N7          3.6219   -0.6610   -0.0366 N.am      1 <0>        -0.6780
     41 C25         3.7486   -1.8284    0.6250 C.2       1 <0>         0.4954
     42 O6          2.7820   -2.3314    1.1580 O.2       1 <0>        -0.5353
     43 O7          3.5339    2.1152   -0.0342 O.3       1 <0>        -0.4925
     44 H5         -0.9723    1.8823   -0.0096 H         1 <0>         0.1287
     45 H6          1.1328    3.1578   -0.0228 H         1 <0>         0.1424
     46 H7          1.2234   -1.7736   -0.0267 H         1 <0>         0.1486
     47 H8         -1.1236   -1.7824    0.4188 H         1 <0>         0.1337
     48 H9         -1.9720    0.0358   -1.8816 H         1 <0>         0.1375
     49 H10        -1.0603   -1.4846   -2.0421 H         1 <0>         0.1440
     50 H11        -2.9047   -2.6186   -1.0426 H         1 <0>         0.4298
     51 H12        -3.7202   -0.8676   -3.2536 H         1 <0>         0.1314
     52 H13        -2.8085   -2.3879   -3.4141 H         1 <0>         0.1318
     53 H14        -4.6925   -3.6266   -2.3822 H         1 <0>         0.0892
     54 H15        -5.6042   -2.1062   -2.2216 H         1 <0>         0.0891
     55 H16        -5.5409   -1.8084   -4.6825 H         1 <0>         0.0748
     56 H17        -4.6293   -3.3288   -4.8431 H         1 <0>         0.0750
     57 H18        -6.5133   -4.5674   -3.8111 H         1 <0>         0.0717
     58 H19        -7.4250   -3.0471   -3.6506 H         1 <0>         0.0716
     59 H20        -7.3617   -2.7493   -6.1115 H         1 <0>         0.0718
     60 H21        -6.4501   -4.2696   -6.2720 H         1 <0>         0.0720
     61 H22        -8.3341   -5.5083   -5.2401 H         1 <0>         0.0702
     62 H23        -9.2457   -3.9879   -5.0795 H         1 <0>         0.0702
     63 H24        -8.4872   -4.2896   -7.7833 H         1 <0>         0.4173
     64 H25       -12.5437   -6.9326   -5.6813 H         1 <0>         0.2058
     65 H26       -10.9525   -5.3672  -11.7974 H         1 <0>         0.2240
     66 H27       -14.9865   -6.8911  -14.8568 H         1 <0>         0.0682
     67 H28       -13.4512   -6.0424  -14.5553 H         1 <0>         0.0607
     68 H29       -13.1444   -7.9798  -15.9184 H         1 <0>         0.3877
     69 H30       -16.8478   -6.7194  -12.9586 H         1 <0>         0.3888
     70 H31       -16.1125   -5.5397   -9.8218 H         1 <0>         0.3916
     71 H32        -2.4670    0.7914    0.4359 H         1 <0>         0.3876
     72 H33         4.3791   -0.2913   -0.5172 H         1 <0>         0.4226
     73 H34         4.7107   -2.3160    0.6806 H         1 <0>         0.1551
     74 H35         3.8745    2.3184    0.8477 H         1 <0>         0.3999
     75 H36        -3.7485   -1.2112   -0.8940 H         1 <0>         0.4319
@<TRIPOS>BOND
     1    1    6 ar
     2    1    2 ar
     3    1   44 1
     4    2    3 ar
     5    2   45 1
     6    3    4 ar
     7    3   43 1
     8    4    5 ar
     9    4   40 1
    10    5    6 ar
    11    5   46 1
    12    6    7 1
    13    7    8 1
    14    7   39 1
    15    7   47 1
    16    8    9 1
    17    8   48 1
    18    8   49 1
    19    9   10 1
    20    9   50 1
    21    9   75 1
    22   10   11 1
    23   10   51 1
    24   10   52 1
    25   11   12 1
    26   11   53 1
    27   11   54 1
    28   12   13 1
    29   12   55 1
    30   12   56 1
    31   13   14 1
    32   13   57 1
    33   13   58 1
    34   14   15 1
    35   14   59 1
    36   14   60 1
    37   15   16 1
    38   15   61 1
    39   15   62 1
    40   16   17 1
    41   16   63 1
    42   17   22 ar
    43   17   18 ar
    44   18   25 1
    45   18   19 ar
    46   19   20 ar
    47   19   23 1
    48   20   21 ar
    49   21   22 ar
    50   21   64 1
    51   23   24 1
    52   23   26 1
    53   24   25 2
    54   24   65 1
    55   26   27 1
    56   26   34 1
    57   26   28 1
    58   28   29 1
    59   28   30 1
    60   28   38 1
    61   30   31 1
    62   30   32 1
    63   30   37 1
    64   32   33 1
    65   32   34 1
    66   32   35 1
    67   35   36 1
    68   35   66 1
    69   35   67 1
    70   36   68 1
    71   37   69 1
    72   38   70 1
    73   39   71 1
    74   40   41 am
    75   40   72 1
    76   41   42 2
    77   41   73 1
    78   43   74 1
@<TRIPOS>MOLECULE
CHEMBL524037
   75    78     0     0     0
SMALL
USER_CHARGES

@<TRIPOS>ATOM
      1 C1         -0.0264    1.3610   -0.0186 C.ar      1 <0>        -0.1047
      2 C2          1.1561    2.0780   -0.0233 C.ar      1 <0>        -0.1196
      3 C3          2.3703    1.4116   -0.0291 C.ar      1 <0>         0.1026
      4 C4          2.3965    0.0185   -0.0303 C.ar      1 <0>         0.1233
      5 C5          1.2066   -0.6937   -0.0255 C.ar      1 <0>        -0.0904
      6 C6         -0.0011   -0.0211   -0.0197 C.ar      1 <0>        -0.1342
      7 C7         -1.2933   -0.7965   -0.0141 C.3       1 <0>         0.1381
      8 C8         -1.8527   -0.8451    1.4092 C.3       1 <0>        -0.0422
      9 N1         -3.0469   -1.7001    1.4370 N.4       1 <0>        -0.5060
     10 C9         -3.5840   -1.7468    2.8035 C.3       1 <0>        -0.0105
     11 C10        -4.8278   -2.6373    2.8325 C.3       1 <0>        -0.1505
     12 C11        -5.3872   -2.6859    4.2557 C.3       1 <0>        -0.1173
     13 C12        -6.6310   -3.5764    4.2847 C.3       1 <0>        -0.1162
     14 C13        -7.1904   -3.6250    5.7080 C.3       1 <0>        -0.1355
     15 C14        -8.4342   -4.5155    5.7369 C.3       1 <0>         0.1278
     16 N2         -8.9698   -4.5620    7.0997 N.pl3     1 <0>        -0.6994
     17 C15       -10.1013   -5.3104    7.3733 C.ar      1 <0>         0.5038
     18 C16       -10.6324   -5.3619    8.6736 C.ar      1 <0>        -0.1056
     19 C17       -11.7828   -6.1387    8.8898 C.ar      1 <0>         0.3128
     20 N3        -12.3235   -6.7913    7.8659 N.ar      1 <0>        -0.5447
     21 C18       -11.7916   -6.7134    6.6645 C.ar      1 <0>         0.3630
     22 N4        -10.7141   -5.9927    6.4116 N.ar      1 <0>        -0.5882
     23 N5        -12.0792   -6.0125   10.2234 N.pl3     1 <0>        -0.4699
     24 C19       -11.1402   -5.1926   10.7749 C.2       1 <0>         0.2673
     25 N6        -10.2923   -4.8120    9.8640 N.2       1 <0>        -0.4641
     26 C20       -13.1997   -6.6430   10.9258 C.3       1 <0>         0.3126
     27 H1        -14.0749   -6.6894   10.2779 H         1 <0>         0.1239
     28 C21       -12.8074   -8.0592   11.4021 C.3       1 <0>         0.0800
     29 H2        -11.7259   -8.1395   11.5114 H         1 <0>         0.0845
     30 C22       -13.5022   -8.1994   12.7750 C.3       1 <0>         0.0474
     31 H3        -12.7641   -8.3491   13.5631 H         1 <0>         0.0874
     32 C23       -14.2320   -6.8514   12.9658 C.3       1 <0>         0.0505
     33 H4        -15.2668   -6.9296   12.6323 H         1 <0>         0.1011
     34 O1        -13.5076   -5.9164   12.1354 O.3       1 <0>        -0.3472
     35 C24       -14.1775   -6.4191   14.4325 C.3       1 <0>         0.0819
     36 O2        -14.9551   -5.2332   14.6087 O.3       1 <0>        -0.5637
     37 O3        -14.4373   -9.2798   12.7549 O.3       1 <0>        -0.5386
     38 O4        -13.2918   -9.0464   10.4896 O.3       1 <0>        -0.5258
     39 O5         -2.2369   -0.1560   -0.8751 O.3       1 <0>        -0.5462
     40 N7          3.6219   -0.6610   -0.0366 N.am      1 <0>        -0.6764
     41 C25         3.7486   -1.8284    0.6250 C.2       1 <0>         0.4985
     42 O6          2.7820   -2.3314    1.1580 O.2       1 <0>        -0.5422
     43 O7          3.5339    2.1152   -0.0342 O.3       1 <0>        -0.4910
     44 H5         -0.9723    1.8823   -0.0096 H         1 <0>         0.1286
     45 H6          1.1328    3.1578   -0.0228 H         1 <0>         0.1426
     46 H7          1.2234   -1.7736   -0.0267 H         1 <0>         0.1490
     47 H8         -1.1097   -1.8112   -0.3671 H         1 <0>         0.1314
     48 H9         -1.0984   -1.2525    2.0823 H         1 <0>         0.1454
     49 H10        -2.1194    0.1621    1.7294 H         1 <0>         0.1369
     50 H11        -3.7452   -1.3229    0.8139 H         1 <0>         0.4319
     51 H12        -2.8297   -2.1542    3.4766 H         1 <0>         0.1321
     52 H13        -3.8507   -0.7396    3.1237 H         1 <0>         0.1313
     53 H14        -5.5821   -2.2298    2.1593 H         1 <0>         0.0891
     54 H15        -4.5611   -3.6445    2.5123 H         1 <0>         0.0891
     55 H16        -4.6329   -3.0933    4.9289 H         1 <0>         0.0750
     56 H17        -5.6539   -1.6787    4.5759 H         1 <0>         0.0749
     57 H18        -7.3853   -3.1689    3.6116 H         1 <0>         0.0717
     58 H19        -6.3643   -4.5836    3.9645 H         1 <0>         0.0716
     59 H20        -6.4361   -4.0324    6.3811 H         1 <0>         0.0718
     60 H21        -7.4571   -2.6178    6.0281 H         1 <0>         0.0720
     61 H22        -9.1885   -4.1081    5.0638 H         1 <0>         0.0702
     62 H23        -8.1675   -5.5227    5.4168 H         1 <0>         0.0701
     63 H24        -8.5314   -4.0683    7.8103 H         1 <0>         0.4173
     64 H25       -12.2556   -7.2564    5.8544 H         1 <0>         0.2058
     65 H26       -11.1051   -4.9017   11.8144 H         1 <0>         0.2240
     66 H27       -14.5795   -7.2139   15.0607 H         1 <0>         0.0682
     67 H28       -13.1434   -6.2208   14.7146 H         1 <0>         0.0607
     68 H29       -14.9657   -4.9012   15.5169 H         1 <0>         0.3877
     69 H30       -14.9026   -9.4129   13.5921 H         1 <0>         0.3887
     70 H31       -13.0736   -9.9545   10.7402 H         1 <0>         0.3916
     71 H32        -2.4483    0.7526   -0.6204 H         1 <0>         0.3885
     72 H33         4.3791   -0.2913   -0.5172 H         1 <0>         0.4235
     73 H34         4.7107   -2.3160    0.6806 H         1 <0>         0.1549
     74 H35         3.8745    2.3184    0.8477 H         1 <0>         0.3984
     75 H36        -2.8000   -2.6324    1.1406 H         1 <0>         0.4296
@<TRIPOS>BOND
     1    1    6 ar
     2    1    2 ar
     3    1   44 1
     4    2    3 ar
     5    2   45 1
     6    3    4 ar
     7    3   43 1
     8    4    5 ar
     9    4   40 1
    10    5    6 ar
    11    5   46 1
    12    6    7 1
    13    7    8 1
    14    7   39 1
    15    7   47 1
    16    8    9 1
    17    8   48 1
    18    8   49 1
    19    9   10 1
    20    9   50 1
    21    9   75 1
    22   10   11 1
    23   10   51 1
    24   10   52 1
    25   11   12 1
    26   11   53 1
    27   11   54 1
    28   12   13 1
    29   12   55 1
    30   12   56 1
    31   13   14 1
    32   13   57 1
    33   13   58 1
    34   14   15 1
    35   14   59 1
    36   14   60 1
    37   15   16 1
    38   15   61 1
    39   15   62 1
    40   16   17 1
    41   16   63 1
    42   17   22 ar
    43   17   18 ar
    44   18   25 1
    45   18   19 ar
    46   19   20 ar
    47   19   23 1
    48   20   21 ar
    49   21   22 ar
    50   21   64 1
    51   23   24 1
    52   23   26 1
    53   24   25 2
    54   24   65 1
    55   26   27 1
    56   26   34 1
    57   26   28 1
    58   28   29 1
    59   28   30 1
    60   28   38 1
    61   30   31 1
    62   30   32 1
    63   30   37 1
    64   32   33 1
    65   32   34 1
    66   32   35 1
    67   35   36 1
    68   35   66 1
    69   35   67 1
    70   36   68 1
    71   37   69 1
    72   38   70 1
    73   39   71 1
    74   40   41 am
    75   40   72 1
    76   41   42 2
    77   41   73 1
    78   43   74 1
@<TRIPOS>MOLECULE
CHEMBL74085
   76    79     0     0     0
SMALL
USER_CHARGES

@<TRIPOS>ATOM
      1 C1         13.3649  -21.0279  -14.0484 C.3       1 <0>        -0.1555
      2 C2         12.1144  -20.7941  -13.1984 C.3       1 <0>        -0.1265
      3 C3         12.0046  -19.3082  -12.8506 C.3       1 <0>        -0.1199
      4 C4         10.7541  -19.0745  -12.0006 C.3       1 <0>        -0.1177
      5 C5         10.6443  -17.5886  -11.6528 C.3       1 <0>        -0.1321
      6 C6          9.3938  -17.3548  -10.8028 C.3       1 <0>         0.1345
      7 N1          9.2887  -15.9321  -10.4697 N.am      1 <0>        -0.7370
      8 C7          8.2580  -15.4892   -9.7226 C.2       1 <0>         0.7023
      9 O1          7.4155  -16.2705   -9.3251 O.2       1 <0>        -0.5664
     10 N2          8.1613  -14.1803   -9.4162 N.am      1 <0>        -0.6906
     11 C8          7.0417  -13.7045   -8.7245 C.ar      1 <0>         0.2291
     12 C9          6.5290  -12.4464   -9.0122 C.ar      1 <0>        -0.1732
     13 C10         5.4236  -11.9799   -8.3282 C.ar      1 <0>         0.0011
     14 C11         4.8275  -12.7640   -7.3576 C.ar      1 <0>        -0.6963
     15 C12         5.3360  -14.0170   -7.0684 C.ar      1 <0>         0.0062
     16 C13         6.4377  -14.4916   -7.7530 C.ar      1 <0>        -0.1395
     17 S1          3.4175  -12.1651   -6.4871 S.o2      1 <0>         2.6880
     18 O2          3.4445  -12.7730   -5.2030 O.2       1 <0>        -0.9377
     19 O3          3.4007  -10.7551   -6.6624 O.2       1 <0>        -0.9448
     20 N3          2.0774  -12.7542   -7.2615 N.pl3     1 <0>        -1.0600
     21 C14         1.8144  -12.3833   -8.5821 C.ar      1 <0>         0.1690
     22 C15         1.9314  -11.0540   -8.9683 C.ar      1 <0>        -0.1440
     23 C16         1.6711  -10.6907  -10.2750 C.ar      1 <0>        -0.0767
     24 C17         1.2938  -11.6484  -11.1985 C.ar      1 <0>        -0.1403
     25 C18         1.1764  -12.9725  -10.8174 C.ar      1 <0>        -0.1180
     26 C19         1.4408  -13.3436   -9.5137 C.ar      1 <0>        -0.1201
     27 C20         1.0096  -11.2481  -12.6233 C.3       1 <0>        -0.0984
     28 C21         2.2985  -11.3322  -13.4434 C.3       1 <0>         0.0894
     29 C22         2.0441  -10.7893  -14.8252 C.ar      1 <0>        -0.1212
     30 C23         1.2631   -9.6497  -14.9544 C.ar      1 <0>        -0.1058
     31 C24         1.0059   -9.1158  -16.2042 C.ar      1 <0>         0.0987
     32 C25         1.5351   -9.7259  -17.3380 C.ar      1 <0>         0.1137
     33 C26         2.3128  -10.8623  -17.2044 C.ar      1 <0>        -0.1189
     34 C27         2.5660  -11.3942  -15.9491 C.ar      1 <0>        -0.0799
     35 C28         3.4116  -12.6386  -15.8505 C.3       1 <0>        -0.1060
     36 C29         3.8965  -12.8226  -14.4120 C.3       1 <0>        -0.0034
     37 N4          2.7381  -12.7287  -13.5108 N.4       1 <0>        -0.5057
     38 O4          1.2884   -9.2077  -18.5709 O.3       1 <0>        -0.4819
     39 O5          0.2394   -7.9989  -16.3248 O.3       1 <0>        -0.4808
     40 H1         13.2948  -20.4441  -14.9662 H         1 <0>         0.0533
     41 H2         14.2478  -20.7197  -13.4883 H         1 <0>         0.0545
     42 H3         13.4431  -22.0865  -14.2962 H         1 <0>         0.0558
     43 H4         11.2316  -21.1023  -13.7586 H         1 <0>         0.0610
     44 H5         12.1845  -21.3779  -12.2807 H         1 <0>         0.0625
     45 H6         12.8874  -19.0000  -12.2905 H         1 <0>         0.0632
     46 H7         11.9345  -18.7244  -13.7684 H         1 <0>         0.0615
     47 H8          9.8712  -19.3827  -12.5608 H         1 <0>         0.0657
     48 H9         10.8242  -19.6583  -11.0829 H         1 <0>         0.0680
     49 H10        11.5271  -17.2804  -11.0927 H         1 <0>         0.0718
     50 H11        10.5742  -17.0048  -12.5706 H         1 <0>         0.0691
     51 H12         8.5109  -17.6630  -11.3630 H         1 <0>         0.0694
     52 H13         9.4639  -17.9386   -9.8850 H         1 <0>         0.0723
     53 H14         9.9608  -15.3087  -10.7869 H         1 <0>         0.4003
     54 H15         8.8678  -13.5681   -9.6751 H         1 <0>         0.4129
     55 H16         6.9943  -11.8334   -9.7699 H         1 <0>         0.1356
     56 H17         5.0245  -11.0014   -8.5512 H         1 <0>         0.1446
     57 H18         4.8684  -14.6269   -6.3096 H         1 <0>         0.1447
     58 H19         6.8314  -15.4723   -7.5300 H         1 <0>         0.1539
     59 H20         1.4751  -13.3569   -6.7979 H         1 <0>         0.4333
     60 H21         2.2253  -10.3055   -8.2473 H         1 <0>         0.1667
     61 H22         1.7619   -9.6575  -10.5759 H         1 <0>         0.1378
     62 H23         0.8816  -13.7180  -11.5412 H         1 <0>         0.1269
     63 H24         1.3532  -14.3785   -9.2178 H         1 <0>         0.1382
     64 H25         0.2642  -11.9205  -13.0478 H         1 <0>         0.1023
     65 H26         0.6312  -10.2261  -12.6449 H         1 <0>         0.1241
     66 H27         3.0716  -10.7350  -12.9600 H         1 <0>         0.1503
     67 H28         0.8534   -9.1770  -14.0740 H         1 <0>         0.1478
     68 H29         2.7245  -11.3378  -18.0824 H         1 <0>         0.1462
     69 H30         2.8187  -13.5040  -16.1466 H         1 <0>         0.1076
     70 H31         4.2716  -12.5457  -16.5137 H         1 <0>         0.1257
     71 H32         4.3644  -13.8014  -14.3060 H         1 <0>         0.1412
     72 H33         4.6157  -12.0416  -14.1655 H         1 <0>         0.1353
     73 H34         3.0007  -13.0449  -12.5893 H         1 <0>         0.4335
     74 H35         1.9402   -8.5548  -18.8607 H         1 <0>         0.4009
     75 H36         0.7407   -7.1726  -16.2935 H         1 <0>         0.3994
     76 H37         1.9873  -13.3024  -13.8648 H         1 <0>         0.4287
@<TRIPOS>BOND
     1    1    2 1
     2    1   40 1
     3    1   41 1
     4    1   42 1
     5    2    3 1
     6    2   43 1
     7    2   44 1
     8    3    4 1
     9    3   45 1
    10    3   46 1
    11    4    5 1
    12    4   47 1
    13    4   48 1
    14    5    6 1
    15    5   49 1
    16    5   50 1
    17    6    7 1
    18    6   51 1
    19    6   52 1
    20    7    8 am
    21    7   53 1
    22    8    9 2
    23    8   10 am
    24   10   11 1
    25   10   54 1
    26   11   16 ar
    27   11   12 ar
    28   12   13 ar
    29   12   55 1
    30   13   14 ar
    31   13   56 1
    32   14   15 ar
    33   14   17 1
    34   15   16 ar
    35   15   57 1
    36   16   58 1
    37   17   18 2
    38   17   19 2
    39   17   20 1
    40   20   21 1
    41   20   59 1
    42   21   26 ar
    43   21   22 ar
    44   22   23 ar
    45   22   60 1
    46   23   24 ar
    47   23   61 1
    48   24   25 ar
    49   24   27 1
    50   25   26 ar
    51   25   62 1
    52   26   63 1
    53   27   28 1
    54   27   64 1
    55   27   65 1
    56   28   37 1
    57   28   29 1
    58   28   66 1
    59   29   34 ar
    60   29   30 ar
    61   30   31 ar
    62   30   67 1
    63   31   32 ar
    64   31   39 1
    65   32   33 ar
    66   32   38 1
    67   33   34 ar
    68   33   68 1
    69   34   35 1
    70   35   36 1
    71   35   69 1
    72   35   70 1
    73   36   37 1
    74   36   71 1
    75   36   72 1
    76   37   73 1
    77   37   76 1
    78   38   74 1
    79   39   75 1
@<TRIPOS>MOLECULE
CHEMBL74085
   75    78     0     0     0
SMALL
USER_CHARGES

@<TRIPOS>ATOM
      1 C1         -6.9266    2.8114    3.5973 C.3       1 <0>        -0.1546
      2 C2         -7.4874    1.3886    3.6395 C.3       1 <0>        -0.1265
      3 C3         -6.5793    0.4583    2.8328 C.3       1 <0>        -0.1197
      4 C4         -7.1401   -0.9646    2.8751 C.3       1 <0>        -0.1177
      5 C5         -6.2319   -1.8949    2.0684 C.3       1 <0>        -0.1318
      6 C6         -6.7928   -3.3178    2.1107 C.3       1 <0>         0.1349
      7 N1         -5.9232   -4.2085    1.3383 N.am      1 <0>        -0.7386
      8 C7         -6.2219   -5.5187    1.2347 C.2       1 <0>         0.7033
      9 O1         -7.2131   -5.9614    1.7824 O.2       1 <0>        -0.5655
     10 N2         -5.4220   -6.3382    0.5241 N.am      1 <0>        -0.6893
     11 C8         -5.6766   -7.7140    0.4969 C.ar      1 <0>         0.2261
     12 C9         -4.6216   -8.6163    0.4622 C.ar      1 <0>        -0.1688
     13 C10        -4.8763   -9.9735    0.4359 C.ar      1 <0>         0.0061
     14 C11        -6.1801  -10.4342    0.4441 C.ar      1 <0>        -0.6934
     15 C12        -7.2328   -9.5382    0.4782 C.ar      1 <0>         0.0032
     16 C13        -6.9847   -8.1799    0.5104 C.ar      1 <0>        -0.1412
     17 S1         -6.5007  -12.1664    0.4105 S.o2      1 <0>         2.6917
     18 O2         -7.7543  -12.3349   -0.2370 O.2       1 <0>        -0.9502
     19 O3         -5.3123  -12.7904   -0.0561 O.2       1 <0>        -0.9488
     20 N3         -6.7082  -12.6565    1.9787 N.pl3     1 <0>        -1.0563
     21 C14        -5.6549  -12.5478    2.8895 C.ar      1 <0>         0.1414
     22 C15        -4.3755  -12.9478    2.5252 C.ar      1 <0>        -0.1509
     23 C16        -3.3362  -12.8385    3.4281 C.ar      1 <0>        -0.0943
     24 C17        -3.5682  -12.3321    4.6938 C.ar      1 <0>        -0.0937
     25 C18        -4.8407  -11.9330    5.0597 C.ar      1 <0>        -0.0930
     26 C19        -5.8833  -12.0342    4.1598 C.ar      1 <0>        -0.1253
     27 C20        -2.4319  -12.2153    5.6767 C.3       1 <0>        -0.0742
     28 C21        -1.7678  -10.8450    5.5281 C.3       1 <0>         0.1361
     29 C22        -0.5445  -10.7875    6.4054 C.ar      1 <0>        -0.0668
     30 C23         0.2859  -11.8986    6.4508 C.ar      1 <0>        -0.1262
     31 C24         1.4229  -11.8913    7.2384 C.ar      1 <0>         0.0787
     32 C25         1.7347  -10.7614    7.9892 C.ar      1 <0>         0.0832
     33 C26         0.9030   -9.6571    7.9425 C.ar      1 <0>        -0.1326
     34 C27        -0.2373   -9.6704    7.1525 C.ar      1 <0>        -0.0566
     35 C28        -1.1176   -8.4467    7.1439 C.3       1 <0>        -0.0774
     36 C29        -2.0578   -8.4881    5.9390 C.3       1 <0>         0.0549
     37 N4         -2.7231   -9.8003    5.9101 N.3       1 <0>        -0.6779
     38 O4          2.8518  -10.7432    8.7647 O.3       1 <0>        -0.4877
     39 O5          2.2324  -12.9833    7.2793 O.3       1 <0>        -0.4868
     40 H1         -7.5736    3.4742    4.1720 H         1 <0>         0.0544
     41 H2         -5.9246    2.8200    4.0263 H         1 <0>         0.0535
     42 H3         -6.8820    3.1539    2.5634 H         1 <0>         0.0535
     43 H4         -7.5320    1.0461    4.6734 H         1 <0>         0.0617
     44 H5         -8.4894    1.3801    3.2105 H         1 <0>         0.0617
     45 H6         -6.5347    0.8007    1.7990 H         1 <0>         0.0621
     46 H7         -5.5773    0.4668    3.2619 H         1 <0>         0.0620
     47 H8         -7.1846   -1.3070    3.9090 H         1 <0>         0.0668
     48 H9         -8.1421   -0.9731    2.4460 H         1 <0>         0.0669
     49 H10        -6.1874   -1.5525    1.0346 H         1 <0>         0.0701
     50 H11        -5.2300   -1.8864    2.4975 H         1 <0>         0.0699
     51 H12        -6.8373   -3.6602    3.1445 H         1 <0>         0.0703
     52 H13        -7.7947   -3.3263    1.6816 H         1 <0>         0.0704
     53 H14        -5.1324   -3.8554    0.9013 H         1 <0>         0.3992
     54 H15        -4.6697   -5.9743    0.0315 H         1 <0>         0.4113
     55 H16        -3.6031   -8.2572    0.4555 H         1 <0>         0.1354
     56 H17        -4.0562  -10.6758    0.4086 H         1 <0>         0.1449
     57 H18        -8.2500   -9.9011    0.4841 H         1 <0>         0.1424
     58 H19        -7.8073   -7.4807    0.5418 H         1 <0>         0.1514
     59 H20        -7.5613  -13.0190    2.2646 H         1 <0>         0.4277
     60 H21        -4.1938  -13.3441    1.5371 H         1 <0>         0.1569
     61 H22        -2.3413  -13.1493    3.1455 H         1 <0>         0.1283
     62 H23        -5.0184  -11.5379    6.0490 H         1 <0>         0.1334
     63 H24        -6.8760  -11.7181    4.4447 H         1 <0>         0.1290
     64 H25        -2.8160  -12.3248    6.6909 H         1 <0>         0.0876
     65 H26        -1.6989  -12.9976    5.4794 H         1 <0>         0.0825
     66 H27        -1.4720  -10.6994    4.4891 H         1 <0>         0.0550
     67 H28         0.0429  -12.7743    5.8673 H         1 <0>         0.1363
     68 H29         1.1430   -8.7792    8.5239 H         1 <0>         0.1330
     69 H30        -1.7059   -8.4178    8.0610 H         1 <0>         0.0877
     70 H31        -0.4953   -7.5537    7.0867 H         1 <0>         0.0787
     71 H32        -2.8056   -7.7003    6.0309 H         1 <0>         0.0813
     72 H33        -1.4848   -8.3479    5.0224 H         1 <0>         0.0364
     73 H34        -3.5162   -9.7899    5.2865 H         1 <0>         0.3500
     74 H35         3.6403  -10.4157    8.3108 H         1 <0>         0.3873
     75 H36         2.9337  -12.9781    6.6136 H         1 <0>         0.3869
@<TRIPOS>BOND
     1    1    2 1
     2    1   40 1
     3    1   41 1
     4    1   42 1
     5    2    3 1
     6    2   43 1
     7    2   44 1
     8    3    4 1
     9    3   45 1
    10    3   46 1
    11    4    5 1
    12    4   47 1
    13    4   48 1
    14    5    6 1
    15    5   49 1
    16    5   50 1
    17    6    7 1
    18    6   51 1
    19    6   52 1
    20    7    8 am
    21    7   53 1
    22    8    9 2
    23    8   10 am
    24   10   11 1
    25   10   54 1
    26   11   16 ar
    27   11   12 ar
    28   12   13 ar
    29   12   55 1
    30   13   14 ar
    31   13   56 1
    32   14   15 ar
    33   14   17 1
    34   15   16 ar
    35   15   57 1
    36   16   58 1
    37   17   18 2
    38   17   19 2
    39   17   20 1
    40   20   21 1
    41   20   59 1
    42   21   26 ar
    43   21   22 ar
    44   22   23 ar
    45   22   60 1
    46   23   24 ar
    47   23   61 1
    48   24   25 ar
    49   24   27 1
    50   25   26 ar
    51   25   62 1
    52   26   63 1
    53   27   28 1
    54   27   64 1
    55   27   65 1
    56   28   37 1
    57   28   29 1
    58   28   66 1
    59   29   34 ar
    60   29   30 ar
    61   30   31 ar
    62   30   67 1
    63   31   32 ar
    64   31   39 1
    65   32   33 ar
    66   32   38 1
    67   33   34 ar
    68   33   68 1
    69   34   35 1
    70   35   36 1
    71   35   69 1
    72   35   70 1
    73   36   37 1
    74   36   71 1
    75   36   72 1
    76   37   73 1
    77   38   74 1
    78   39   75 1
@<TRIPOS>MOLECULE
CHEMBL74085
   76    79     0     0     0
SMALL
USER_CHARGES

@<TRIPOS>ATOM
      1 C1         13.3649  -21.0279  -14.0484 C.3       1 <0>        -0.1553
      2 C2         12.1144  -20.7941  -13.1985 C.3       1 <0>        -0.1267
      3 C3         12.0046  -19.3082  -12.8506 C.3       1 <0>        -0.1197
      4 C4         10.7541  -19.0745  -12.0006 C.3       1 <0>        -0.1180
      5 C5         10.6443  -17.5886  -11.6528 C.3       1 <0>        -0.1317
      6 C6          9.3938  -17.3548  -10.8028 C.3       1 <0>         0.1337
      7 N1          9.2887  -15.9321  -10.4697 N.am      1 <0>        -0.7363
      8 C7          8.2580  -15.4892   -9.7226 C.2       1 <0>         0.7021
      9 O1          7.4155  -16.2705   -9.3251 O.2       1 <0>        -0.5646
     10 N2          8.1613  -14.1803   -9.4162 N.am      1 <0>        -0.6907
     11 C8          7.0417  -13.7045   -8.7245 C.ar      1 <0>         0.2315
     12 C9          6.5290  -12.4464   -9.0122 C.ar      1 <0>        -0.1744
     13 C10         5.4236  -11.9799   -8.3282 C.ar      1 <0>        -0.0018
     14 C11         4.8275  -12.7640   -7.3576 C.ar      1 <0>        -0.6967
     15 C12         5.3360  -14.0170   -7.0684 C.ar      1 <0>         0.0075
     16 C13         6.4377  -14.4916   -7.7530 C.ar      1 <0>        -0.1382
     17 S1          3.4175  -12.1651   -6.4871 S.o2      1 <0>         2.6894
     18 O2          3.4445  -12.7730   -5.2030 O.2       1 <0>        -0.9375
     19 O3          3.4007  -10.7551   -6.6624 O.2       1 <0>        -0.9474
     20 N3          2.0774  -12.7542   -7.2615 N.pl3     1 <0>        -1.0600
     21 C14         1.8144  -12.3833   -8.5821 C.ar      1 <0>         0.1693
     22 C15         1.9314  -11.0540   -8.9683 C.ar      1 <0>        -0.1458
     23 C16         1.6711  -10.6907  -10.2750 C.ar      1 <0>        -0.1133
     24 C17         1.2938  -11.6484  -11.1985 C.ar      1 <0>        -0.1410
     25 C18         1.1764  -12.9725  -10.8174 C.ar      1 <0>        -0.0816
     26 C19         1.4408  -13.3436   -9.5137 C.ar      1 <0>        -0.1180
     27 C20         1.0096  -11.2481  -12.6233 C.3       1 <0>        -0.0973
     28 C21         2.2985  -11.3322  -13.4434 C.3       1 <0>         0.0887
     29 C22         1.9816  -11.0779  -14.8938 C.ar      1 <0>        -0.1206
     30 C23         0.8317  -11.6416  -15.4280 C.ar      1 <0>        -0.1060
     31 C24         0.5034  -11.4358  -16.7558 C.ar      1 <0>         0.0987
     32 C25         1.3329  -10.6592  -17.5599 C.ar      1 <0>         0.1133
     33 C26         2.4782  -10.0988  -17.0228 C.ar      1 <0>        -0.1186
     34 C27         2.8015  -10.3070  -15.6906 C.ar      1 <0>        -0.0804
     35 C28         4.0545   -9.6704  -15.1448 C.3       1 <0>        -0.1057
     36 C29         4.4361  -10.3312  -13.8196 C.3       1 <0>        -0.0044
     37 N4          3.2552  -10.3411  -12.9430 N.4       1 <0>        -0.5053
     38 O4          1.0194  -10.4528  -18.8670 O.3       1 <0>        -0.4816
     39 O5         -0.6256  -11.9896  -17.2737 O.3       1 <0>        -0.4807
     40 H1         13.2948  -20.4441  -14.9662 H         1 <0>         0.0533
     41 H2         14.2477  -20.7197  -13.4883 H         1 <0>         0.0542
     42 H3         13.4431  -22.0865  -14.2962 H         1 <0>         0.0557
     43 H4         11.2316  -21.1023  -13.7586 H         1 <0>         0.0614
     44 H5         12.1845  -21.3779  -12.2807 H         1 <0>         0.0624
     45 H6         12.8874  -19.0000  -12.2905 H         1 <0>         0.0629
     46 H7         11.9345  -18.7244  -13.7684 H         1 <0>         0.0616
     47 H8          9.8712  -19.3827  -12.5608 H         1 <0>         0.0664
     48 H9         10.8242  -19.6583  -11.0829 H         1 <0>         0.0679
     49 H10        11.5271  -17.2804  -11.0927 H         1 <0>         0.0714
     50 H11        10.5742  -17.0048  -12.5706 H         1 <0>         0.0693
     51 H12         8.5109  -17.6630  -11.3630 H         1 <0>         0.0705
     52 H13         9.4639  -17.9386   -9.8850 H         1 <0>         0.0724
     53 H14         9.9608  -15.3087  -10.7869 H         1 <0>         0.4000
     54 H15         8.8678  -13.5681   -9.6751 H         1 <0>         0.4124
     55 H16         6.9943  -11.8334   -9.7699 H         1 <0>         0.1345
     56 H17         5.0245  -11.0014   -8.5512 H         1 <0>         0.1424
     57 H18         4.8684  -14.6269   -6.3096 H         1 <0>         0.1451
     58 H19         6.8314  -15.4723   -7.5300 H         1 <0>         0.1545
     59 H20         1.4751  -13.3569   -6.7979 H         1 <0>         0.4338
     60 H21         2.2253  -10.3055   -8.2473 H         1 <0>         0.1665
     61 H22         1.7619   -9.6575  -10.5759 H         1 <0>         0.1297
     62 H23         0.8816  -13.7180  -11.5412 H         1 <0>         0.1352
     63 H24         1.3532  -14.3785   -9.2178 H         1 <0>         0.1389
     64 H25         0.2642  -11.9205  -13.0478 H         1 <0>         0.1230
     65 H26         0.6312  -10.2261  -12.6449 H         1 <0>         0.1026
     66 H27         2.7263  -12.3293  -13.3391 H         1 <0>         0.1499
     67 H28         0.1890  -12.2442  -14.8033 H         1 <0>         0.1473
     68 H29         3.1239   -9.4963  -17.6446 H         1 <0>         0.1464
     69 H30         4.8669   -9.7977  -15.8603 H         1 <0>         0.1259
     70 H31         3.8794   -8.6069  -14.9822 H         1 <0>         0.1078
     71 H32         4.7646  -11.3543  -14.0021 H         1 <0>         0.1352
     72 H33         5.2386   -9.7653  -13.3463 H         1 <0>         0.1429
     73 H34         2.8266   -9.4277  -12.9435 H         1 <0>         0.4286
     74 H35         0.4704   -9.6718  -19.0212 H         1 <0>         0.4007
     75 H36        -1.4093  -11.4281  -17.1986 H         1 <0>         0.3991
     76 H37         3.5336  -10.5845  -12.0043 H         1 <0>         0.4333
@<TRIPOS>BOND
     1    1    2 1
     2    1   40 1
     3    1   41 1
     4    1   42 1
     5    2    3 1
     6    2   43 1
     7    2   44 1
     8    3    4 1
     9    3   45 1
    10    3   46 1
    11    4    5 1
    12    4   47 1
    13    4   48 1
    14    5    6 1
    15    5   49 1
    16    5   50 1
    17    6    7 1
    18    6   51 1
    19    6   52 1
    20    7    8 am
    21    7   53 1
    22    8    9 2
    23    8   10 am
    24   10   11 1
    25   10   54 1
    26   11   16 ar
    27   11   12 ar
    28   12   13 ar
    29   12   55 1
    30   13   14 ar
    31   13   56 1
    32   14   15 ar
    33   14   17 1
    34   15   16 ar
    35   15   57 1
    36   16   58 1
    37   17   18 2
    38   17   19 2
    39   17   20 1
    40   20   21 1
    41   20   59 1
    42   21   26 ar
    43   21   22 ar
    44   22   23 ar
    45   22   60 1
    46   23   24 ar
    47   23   61 1
    48   24   25 ar
    49   24   27 1
    50   25   26 ar
    51   25   62 1
    52   26   63 1
    53   27   28 1
    54   27   64 1
    55   27   65 1
    56   28   37 1
    57   28   29 1
    58   28   66 1
    59   29   34 ar
    60   29   30 ar
    61   30   31 ar
    62   30   67 1
    63   31   32 ar
    64   31   39 1
    65   32   33 ar
    66   32   38 1
    67   33   34 ar
    68   33   68 1
    69   34   35 1
    70   35   36 1
    71   35   69 1
    72   35   70 1
    73   36   37 1
    74   36   71 1
    75   36   72 1
    76   37   73 1
    77   37   76 1
    78   38   74 1
    79   39   75 1
@<TRIPOS>MOLECULE
CHEMBL74085
   75    78     0     0     0
SMALL
USER_CHARGES

@<TRIPOS>ATOM
      1 C1         -6.9266    2.8114    3.5973 C.3       1 <0>        -0.1546
      2 C2         -7.4874    1.3886    3.6395 C.3       1 <0>        -0.1266
      3 C3         -6.5793    0.4583    2.8328 C.3       1 <0>        -0.1197
      4 C4         -7.1401   -0.9646    2.8751 C.3       1 <0>        -0.1178
      5 C5         -6.2319   -1.8949    2.0684 C.3       1 <0>        -0.1318
      6 C6         -6.7928   -3.3178    2.1107 C.3       1 <0>         0.1350
      7 N1         -5.9232   -4.2085    1.3383 N.am      1 <0>        -0.7390
      8 C7         -6.2219   -5.5187    1.2347 C.2       1 <0>         0.7036
      9 O1         -7.2131   -5.9614    1.7824 O.2       1 <0>        -0.5662
     10 N2         -5.4220   -6.3382    0.5241 N.am      1 <0>        -0.6888
     11 C8         -5.6766   -7.7140    0.4969 C.ar      1 <0>         0.2248
     12 C9         -4.6216   -8.6163    0.4622 C.ar      1 <0>        -0.1656
     13 C10        -4.8763   -9.9735    0.4359 C.ar      1 <0>         0.0102
     14 C11        -6.1801  -10.4342    0.4441 C.ar      1 <0>        -0.6937
     15 C12        -7.2328   -9.5382    0.4782 C.ar      1 <0>         0.0015
     16 C13        -6.9847   -8.1799    0.5104 C.ar      1 <0>        -0.1426
     17 S1         -6.5007  -12.1664    0.4105 S.o2      1 <0>         2.6922
     18 O2         -7.7543  -12.3349   -0.2370 O.2       1 <0>        -0.9525
     19 O3         -5.3123  -12.7904   -0.0561 O.2       1 <0>        -0.9487
     20 N3         -6.7082  -12.6565    1.9787 N.pl3     1 <0>        -1.0567
     21 C14        -5.6549  -12.5478    2.8895 C.ar      1 <0>         0.1398
     22 C15        -4.3755  -12.9478    2.5252 C.ar      1 <0>        -0.1516
     23 C16        -3.3362  -12.8385    3.4281 C.ar      1 <0>        -0.0719
     24 C17        -3.5682  -12.3321    4.6938 C.ar      1 <0>        -0.0780
     25 C18        -4.8407  -11.9330    5.0597 C.ar      1 <0>        -0.1002
     26 C19        -5.8833  -12.0342    4.1598 C.ar      1 <0>        -0.1266
     27 C20        -2.4319  -12.2153    5.6767 C.3       1 <0>        -0.0753
     28 C21        -1.7678  -10.8450    5.5281 C.3       1 <0>         0.1343
     29 C22        -0.7313  -10.6750    6.6081 C.ar      1 <0>        -0.1055
     30 C23        -1.0434  -11.0980    7.8925 C.ar      1 <0>        -0.1233
     31 C24        -0.1258  -10.9586    8.9179 C.ar      1 <0>         0.0801
     32 C25         1.1179  -10.3899    8.6581 C.ar      1 <0>         0.0830
     33 C26         1.4253   -9.9716    7.3759 C.ar      1 <0>        -0.1296
     34 C27         0.5021  -10.1157    6.3506 C.ar      1 <0>        -0.0687
     35 C28         0.8884   -9.6549    4.9683 C.3       1 <0>        -0.1201
     36 C29        -0.3601   -9.5105    4.0978 C.3       1 <0>         0.0560
     37 N4         -1.1486  -10.7485    4.2025 N.3       1 <0>        -0.6651
     38 O4          2.0262  -10.2459    9.6601 O.3       1 <0>        -0.4878
     39 O5         -0.4374  -11.3748   10.1745 O.3       1 <0>        -0.4873
     40 H1         -7.5736    3.4742    4.1720 H         1 <0>         0.0543
     41 H2         -5.9246    2.8200    4.0263 H         1 <0>         0.0535
     42 H3         -6.8820    3.1539    2.5634 H         1 <0>         0.0535
     43 H4         -7.5320    1.0461    4.6734 H         1 <0>         0.0616
     44 H5         -8.4894    1.3801    3.2105 H         1 <0>         0.0617
     45 H6         -6.5347    0.8007    1.7990 H         1 <0>         0.0621
     46 H7         -5.5773    0.4668    3.2619 H         1 <0>         0.0620
     47 H8         -7.1846   -1.3070    3.9090 H         1 <0>         0.0667
     48 H9         -8.1421   -0.9731    2.4460 H         1 <0>         0.0668
     49 H10        -6.1874   -1.5525    1.0346 H         1 <0>         0.0702
     50 H11        -5.2300   -1.8864    2.4975 H         1 <0>         0.0700
     51 H12        -6.8373   -3.6602    3.1445 H         1 <0>         0.0699
     52 H13        -7.7947   -3.3263    1.6816 H         1 <0>         0.0702
     53 H14        -5.1324   -3.8554    0.9013 H         1 <0>         0.3992
     54 H15        -4.6697   -5.9743    0.0315 H         1 <0>         0.4111
     55 H16        -3.6031   -8.2572    0.4555 H         1 <0>         0.1362
     56 H17        -4.0562  -10.6758    0.4086 H         1 <0>         0.1465
     57 H18        -8.2500   -9.9011    0.4841 H         1 <0>         0.1411
     58 H19        -7.8073   -7.4807    0.5418 H         1 <0>         0.1503
     59 H20        -7.5613  -13.0190    2.2646 H         1 <0>         0.4265
     60 H21        -4.1938  -13.3441    1.5371 H         1 <0>         0.1553
     61 H22        -2.3413  -13.1493    3.1455 H         1 <0>         0.1271
     62 H23        -5.0184  -11.5379    6.0490 H         1 <0>         0.1234
     63 H24        -6.8760  -11.7181    4.4447 H         1 <0>         0.1259
     64 H25        -2.8160  -12.3248    6.6909 H         1 <0>         0.0824
     65 H26        -1.6989  -12.9976    5.4794 H         1 <0>         0.0768
     66 H27        -2.5235  -10.0661    5.6296 H         1 <0>         0.0974
     67 H28        -2.0089  -11.5386    8.0926 H         1 <0>         0.1369
     68 H29         2.3895   -9.5299    7.1720 H         1 <0>         0.1325
     69 H30         1.3953   -8.6923    5.0363 H         1 <0>         0.0824
     70 H31         1.5608  -10.3852    4.5182 H         1 <0>         0.0809
     71 H32        -0.9550   -8.6669    4.4478 H         1 <0>         0.0760
     72 H33        -0.0667   -9.3499    3.0604 H         1 <0>         0.0859
     73 H34        -0.5778  -11.5581    4.0103 H         1 <0>         0.3428
     74 H35         2.6165  -11.0042    9.7677 H         1 <0>         0.3881
     75 H36        -0.2006  -12.2950   10.3541 H         1 <0>         0.3879
@<TRIPOS>BOND
     1    1    2 1
     2    1   40 1
     3    1   41 1
     4    1   42 1
     5    2    3 1
     6    2   43 1
     7    2   44 1
     8    3    4 1
     9    3   45 1
    10    3   46 1
    11    4    5 1
    12    4   47 1
    13    4   48 1
    14    5    6 1
    15    5   49 1
    16    5   50 1
    17    6    7 1
    18    6   51 1
    19    6   52 1
    20    7    8 am
    21    7   53 1
    22    8    9 2
    23    8   10 am
    24   10   11 1
    25   10   54 1
    26   11   16 ar
    27   11   12 ar
    28   12   13 ar
    29   12   55 1
    30   13   14 ar
    31   13   56 1
    32   14   15 ar
    33   14   17 1
    34   15   16 ar
    35   15   57 1
    36   16   58 1
    37   17   18 2
    38   17   19 2
    39   17   20 1
    40   20   21 1
    41   20   59 1
    42   21   26 ar
    43   21   22 ar
    44   22   23 ar
    45   22   60 1
    46   23   24 ar
    47   23   61 1
    48   24   25 ar
    49   24   27 1
    50   25   26 ar
    51   25   62 1
    52   26   63 1
    53   27   28 1
    54   27   64 1
    55   27   65 1
    56   28   37 1
    57   28   29 1
    58   28   66 1
    59   29   34 ar
    60   29   30 ar
    61   30   31 ar
    62   30   67 1
    63   31   32 ar
    64   31   39 1
    65   32   33 ar
    66   32   38 1
    67   33   34 ar
    68   33   68 1
    69   34   35 1
    70   35   36 1
    71   35   69 1
    72   35   70 1
    73   36   37 1
    74   36   71 1
    75   36   72 1
    76   37   73 1
    77   38   74 1
    78   39   75 1
@<TRIPOS>MOLECULE
CHEMBL1082827
   61    65     0     0     0
SMALL
USER_CHARGES

@<TRIPOS>ATOM
      1 C1         -0.0167    1.3798    0.0096 C.ar      1 <0>        -0.0767
      2 C2          1.1680    2.0953    0.0022 C.ar      1 <0>        -0.1268
      3 C3          2.3774    1.4332   -0.0134 C.ar      1 <0>        -0.0557
      4 C4          2.4048    0.0349   -0.0211 C.ar      1 <0>        -0.1826
      5 C5          1.2034   -0.6808   -0.0130 C.ar      1 <0>        -0.0781
      6 C6          0.0021   -0.0041    0.0020 C.ar      1 <0>        -0.1309
      7 C7          3.6913   -0.6795   -0.0381 C.2       1 <0>         0.4052
      8 O1          4.7311   -0.0559   -0.0455 O.2       1 <0>        -0.4351
      9 C8          3.7163   -2.1863   -0.0464 C.3       1 <0>        -0.1473
     10 C9          3.6238   -2.7079    1.3905 C.3       1 <0>        -0.1367
     11 C10         3.7297   -4.2344    1.3810 C.3       1 <0>        -0.0027
     12 N1          5.0143   -4.6357    0.7949 N.4       1 <0>        -0.3799
     13 C11         5.0803   -4.2011   -0.6055 C.3       1 <0>        -0.0117
     14 C12         5.0263   -2.6733   -0.6725 C.3       1 <0>        -0.1355
     15 C13         5.1447   -6.0975    0.8591 C.3       1 <0>        -0.0429
     16 C14         6.5329   -6.5079    0.3637 C.3       1 <0>         0.0845
     17 C15         6.6255   -8.0342    0.3125 C.3       1 <0>         0.0289
     18 O2          7.8781   -8.4165   -0.2592 O.3       1 <0>        -0.2956
     19 C16         8.1213   -9.7478   -0.3777 C.ar      1 <0>         0.1790
     20 C17         7.1752  -10.6674    0.0404 C.ar      1 <0>        -0.2456
     21 C18         7.4227  -12.0249   -0.0802 C.ar      1 <0>        -0.0444
     22 C19         8.6099  -12.4774   -0.6158 C.ar      1 <0>        -0.1711
     23 C20         9.5754  -11.5700   -1.0422 C.ar      1 <0>         0.1819
     24 C21         9.3252  -10.1951   -0.9276 C.ar      1 <0>        -0.1298
     25 C22        10.5136   -9.5069   -1.4630 C.ar      1 <0>        -0.0924
     26 C23        10.8591   -8.1656   -1.6117 C.ar      1 <0>        -0.0605
     27 C24        12.0768   -7.8292   -2.1626 C.ar      1 <0>        -0.1466
     28 C25        12.9572   -8.8202   -2.5690 C.ar      1 <0>        -0.0825
     29 C26        12.6279  -10.1510   -2.4281 C.ar      1 <0>        -0.1380
     30 C27        11.4035  -10.5107   -1.8733 C.ar      1 <0>         0.1336
     31 N2         10.8282  -11.7401   -1.6039 N.pl3     1 <0>        -0.6121
     32 H1         11.2391  -12.5981   -1.7934 H         1 <0>         0.4226
     33 O3          7.5265   -6.0002    1.2565 O.3       1 <0>        -0.5411
     34 H2         -0.9607    1.9041    0.0260 H         1 <0>         0.1336
     35 H3          1.1452    3.1750    0.0081 H         1 <0>         0.1353
     36 H4          3.3011    1.9929   -0.0199 H         1 <0>         0.1359
     37 H5          1.2164   -1.7607   -0.0192 H         1 <0>         0.1274
     38 H6         -0.9266   -0.5553    0.0082 H         1 <0>         0.1330
     39 H7          2.8734   -2.5617   -0.6266 H         1 <0>         0.1169
     40 H8          4.4382   -2.2902    1.9824 H         1 <0>         0.0969
     41 H9          2.6687   -2.4120    1.8243 H         1 <0>         0.1214
     42 H10         3.6640   -4.6091    2.4024 H         1 <0>         0.1369
     43 H11         2.9148   -4.6510    0.7890 H         1 <0>         0.1337
     44 H12         6.0116   -4.5511   -1.0506 H         1 <0>         0.1369
     45 H13         4.2366   -4.6184   -1.1552 H         1 <0>         0.1330
     46 H14         5.0737   -2.3527   -1.7132 H         1 <0>         0.1175
     47 H15         5.8698   -2.2549   -0.1233 H         1 <0>         0.1020
     48 H16         5.0137   -6.4291    1.8891 H         1 <0>         0.1406
     49 H17         4.3834   -6.5582    0.2295 H         1 <0>         0.1449
     50 H18         6.6981   -6.1002   -0.6335 H         1 <0>         0.1340
     51 H19         6.5490   -8.4370    1.3224 H         1 <0>         0.0785
     52 H20         5.8125   -8.4272   -0.2980 H         1 <0>         0.0823
     53 H21         6.2416  -10.3256    0.4622 H         1 <0>         0.1278
     54 H22         6.6789  -12.7355    0.2486 H         1 <0>         0.1351
     55 H23         8.7912  -13.5384   -0.7043 H         1 <0>         0.1305
     56 H24        10.1748   -7.3918   -1.2966 H         1 <0>         0.1252
     57 H25        12.3461   -6.7897   -2.2785 H         1 <0>         0.1276
     58 H26        13.9091   -8.5469   -2.9999 H         1 <0>         0.1320
     59 H27        13.3206  -10.9152   -2.7482 H         1 <0>         0.1271
     60 H28         7.4409   -6.3219    2.1644 H         1 <0>         0.3903
     61 H29         5.7674   -4.2098    1.3141 H         1 <0>         0.4302
@<TRIPOS>BOND
     1    1    6 ar
     2    1    2 ar
     3    1   34 1
     4    2    3 ar
     5    2   35 1
     6    3    4 ar
     7    3   36 1
     8    4    5 ar
     9    4    7 1
    10    5    6 ar
    11    5   37 1
    12    6   38 1
    13    7    8 2
    14    7    9 1
    15    9   14 1
    16    9   10 1
    17    9   39 1
    18   10   11 1
    19   10   40 1
    20   10   41 1
    21   11   12 1
    22   11   42 1
    23   11   43 1
    24   12   13 1
    25   12   15 1
    26   12   61 1
    27   13   14 1
    28   13   44 1
    29   13   45 1
    30   14   46 1
    31   14   47 1
    32   15   16 1
    33   15   48 1
    34   15   49 1
    35   16   17 1
    36   16   33 1
    37   16   50 1
    38   17   18 1
    39   17   51 1
    40   17   52 1
    41   18   19 1
    42   19   24 ar
    43   19   20 ar
    44   20   21 ar
    45   20   53 1
    46   21   22 ar
    47   21   54 1
    48   22   23 ar
    49   22   55 1
    50   23   31 1
    51   23   24 ar
    52   24   25 1
    53   25   30 ar
    54   25   26 ar
    55   26   27 ar
    56   26   56 1
    57   27   28 ar
    58   27   57 1
    59   28   29 ar
    60   28   58 1
    61   29   30 ar
    62   29   59 1
    63   30   31 1
    64   31   32 1
    65   33   60 1
@<TRIPOS>MOLECULE
CHEMBL1082827
   61    65     0     0     0
SMALL
USER_CHARGES

@<TRIPOS>ATOM
      1 C1          5.9626    1.7395    5.4617 C.ar      1 <0>        -0.0765
      2 C2          5.4765    2.3612    4.3247 C.ar      1 <0>        -0.1269
      3 C3          5.0366    1.6076    3.2571 C.ar      1 <0>        -0.0557
      4 C4          5.0830    0.2115    3.3252 C.ar      1 <0>        -0.1828
      5 C5          5.5759   -0.4092    4.4774 C.ar      1 <0>        -0.0779
      6 C6          6.0116    0.3584    5.5368 C.ar      1 <0>        -0.1307
      7 C7          4.6150   -0.6004    2.1904 C.2       1 <0>         0.4057
      8 O1          4.1878   -0.0590    1.1930 O.2       1 <0>        -0.4362
      9 C8          4.6667   -2.1045    2.2679 C.3       1 <0>        -0.1473
     10 C9          6.0547   -2.5918    1.8421 C.3       1 <0>        -0.1352
     11 C10         6.0757   -4.1218    1.8467 C.3       1 <0>        -0.0096
     12 N1          5.0678   -4.6314    0.9092 N.4       1 <0>        -0.3795
     13 C11         3.7274   -4.2281    1.3512 C.3       1 <0>        -0.0039
     14 C12         3.6161   -2.7021    1.3276 C.3       1 <0>        -0.1369
     15 C13         5.1447   -6.0975    0.8591 C.3       1 <0>        -0.0434
     16 C14         6.4833   -6.5174    0.2485 C.3       1 <0>         0.0853
     17 C15         6.5658   -8.0444    0.2014 C.3       1 <0>         0.0287
     18 O2          7.8599   -8.4376   -0.2598 O.3       1 <0>        -0.2956
     19 C16         8.1001   -9.7709   -0.3602 C.ar      1 <0>         0.1790
     20 C17         7.1126  -10.6822   -0.0286 C.ar      1 <0>        -0.2455
     21 C18         7.3570  -12.0418   -0.1308 C.ar      1 <0>        -0.0443
     22 C19         8.5821  -12.5046   -0.5620 C.ar      1 <0>        -0.1710
     23 C20         9.5896  -11.6056   -0.9002 C.ar      1 <0>         0.1819
     24 C21         9.3431  -10.2286   -0.8042 C.ar      1 <0>        -0.1299
     25 C22        10.5800   -9.5507   -1.2321 C.ar      1 <0>        -0.0923
     26 C23        10.9497   -8.2125   -1.3466 C.ar      1 <0>        -0.0605
     27 C24        12.2139   -7.8867   -1.7883 C.ar      1 <0>        -0.1468
     28 C25        13.1171   -8.8853   -2.1190 C.ar      1 <0>        -0.0825
     29 C26        12.7643  -10.2132   -2.0109 C.ar      1 <0>        -0.1380
     30 C27        11.4929  -10.5622   -1.5659 C.ar      1 <0>         0.1336
     31 N2         10.8849  -11.7866   -1.3509 N.pl3     1 <0>        -0.6121
     32 H1         11.3028  -12.6481   -1.5062 H         1 <0>         0.4226
     33 O3          6.5874   -5.9936   -1.0770 O.3       1 <0>        -0.5421
     34 H2          6.3095    2.3353    6.2930 H         1 <0>         0.1336
     35 H3          5.4413    3.4394    4.2736 H         1 <0>         0.1352
     36 H4          4.6569    2.0941    2.3708 H         1 <0>         0.1358
     37 H5          5.6146   -1.4868    4.5376 H         1 <0>         0.1276
     38 H6          6.3926   -0.1194    6.4273 H         1 <0>         0.1331
     39 H7          4.4647   -2.4239    3.2902 H         1 <0>         0.1168
     40 H8          6.2764   -2.2277    0.8389 H         1 <0>         0.0977
     41 H9          6.8025   -2.2154    2.5401 H         1 <0>         0.1211
     42 H10         7.0626   -4.4721    1.5442 H         1 <0>         0.1378
     43 H11         5.8542   -4.4848    2.8503 H         1 <0>         0.1340
     44 H12         2.9806   -4.6568    0.6830 H         1 <0>         0.1358
     45 H13         3.5560   -4.5888    2.3654 H         1 <0>         0.1323
     46 H14         2.6208   -2.4046    1.6578 H         1 <0>         0.1176
     47 H15         3.7871   -2.3404    0.3137 H         1 <0>         0.1012
     48 H16         5.0635   -6.5004    1.8686 H         1 <0>         0.1454
     49 H17         4.3293   -6.4834    0.2473 H         1 <0>         0.1403
     50 H18         7.2987   -6.1281    0.8581 H         1 <0>         0.1342
     51 H19         6.3977   -8.4483    1.1998 H         1 <0>         0.0827
     52 H20         5.8055   -8.4286   -0.4786 H         1 <0>         0.0784
     53 H21         6.1490  -10.3323    0.3111 H         1 <0>         0.1279
     54 H22         6.5808  -12.7459    0.1300 H         1 <0>         0.1352
     55 H23         8.7606  -13.5670   -0.6371 H         1 <0>         0.1305
     56 H24        10.2477   -7.4328   -1.0903 H         1 <0>         0.1251
     57 H25        12.5019   -6.8497   -1.8775 H         1 <0>         0.1275
     58 H26        14.1054   -8.6202   -2.4646 H         1 <0>         0.1320
     59 H27        13.4752  -10.9834   -2.2714 H         1 <0>         0.1271
     60 H28         5.8923   -6.2986   -1.6761 H         1 <0>         0.3905
     61 H29         5.2448   -4.2557   -0.0103 H         1 <0>         0.4299
@<TRIPOS>BOND
     1    1    6 ar
     2    1    2 ar
     3    1   34 1
     4    2    3 ar
     5    2   35 1
     6    3    4 ar
     7    3   36 1
     8    4    5 ar
     9    4    7 1
    10    5    6 ar
    11    5   37 1
    12    6   38 1
    13    7    8 2
    14    7    9 1
    15    9   14 1
    16    9   10 1
    17    9   39 1
    18   10   11 1
    19   10   40 1
    20   10   41 1
    21   11   12 1
    22   11   42 1
    23   11   43 1
    24   12   13 1
    25   12   15 1
    26   12   61 1
    27   13   14 1
    28   13   44 1
    29   13   45 1
    30   14   46 1
    31   14   47 1
    32   15   16 1
    33   15   48 1
    34   15   49 1
    35   16   17 1
    36   16   33 1
    37   16   50 1
    38   17   18 1
    39   17   51 1
    40   17   52 1
    41   18   19 1
    42   19   24 ar
    43   19   20 ar
    44   20   21 ar
    45   20   53 1
    46   21   22 ar
    47   21   54 1
    48   22   23 ar
    49   22   55 1
    50   23   31 1
    51   23   24 ar
    52   24   25 1
    53   25   30 ar
    54   25   26 ar
    55   26   27 ar
    56   26   56 1
    57   27   28 ar
    58   27   57 1
    59   28   29 ar
    60   28   58 1
    61   29   30 ar
    62   29   59 1
    63   30   31 1
    64   31   32 1
    65   33   60 1
@<TRIPOS>MOLECULE
CHEMBL423
   52    53     0     0     0
SMALL
USER_CHARGES

@<TRIPOS>ATOM
      1 C1         -0.0187    1.5258    0.0104 C.3       1 <0>        -0.1852
      2 C2          0.0021   -0.0041    0.0020 C.3       1 <0>         0.0239
      3 C3          0.7421   -0.5109    1.2415 C.3       1 <0>        -0.1868
      4 N1         -1.3761   -0.5125    0.0124 N.4       1 <0>        -0.5024
      5 C4         -1.3591   -1.9758   -0.1163 C.3       1 <0>        -0.0453
      6 C5         -2.7945   -2.5054   -0.1054 C.3       1 <0>         0.0866
      7 C6         -2.7738   -4.0352   -0.1138 C.3       1 <0>         0.0299
      8 O1         -4.1082   -4.5304    0.0137 O.3       1 <0>        -0.3023
      9 C7         -4.2671   -5.8800    0.0235 C.ar      1 <0>         0.1160
     10 C8         -3.1609   -6.7107   -0.0816 C.ar      1 <0>        -0.2056
     11 C9         -3.3251   -8.0823   -0.0709 C.ar      1 <0>        -0.0736
     12 C10        -4.5906   -8.6274    0.0439 C.ar      1 <0>        -0.1079
     13 C11        -5.6947   -7.8017    0.1483 C.ar      1 <0>        -0.0707
     14 C12        -5.5352   -6.4295    0.1443 C.ar      1 <0>        -0.1405
     15 C13        -4.7668  -10.1240    0.0548 C.3       1 <0>        -0.0789
     16 C14        -4.6939  -10.6357    1.4948 C.3       1 <0>         0.0686
     17 O2         -4.8610  -12.0548    1.5051 O.3       1 <0>        -0.3855
     18 C15        -4.8090  -12.6367    2.8093 C.3       1 <0>         0.0952
     19 C16        -4.9985  -14.1510    2.7000 C.3       1 <0>        -0.1578
     20 C17        -6.2387  -14.7572    3.3599 C.3       1 <0>        -0.1762
     21 C18        -4.8577  -14.9749    3.9815 C.3       1 <0>        -0.1729
     22 O3         -3.4857   -2.0320   -1.2631 O.3       1 <0>        -0.5429
     23 H1          1.0039    1.9031    0.0027 H         1 <0>         0.1083
     24 H2         -0.5459    1.8868   -0.8726 H         1 <0>         0.0831
     25 H3         -0.5289    1.8773    0.9072 H         1 <0>         0.0829
     26 H4          0.5123   -0.3556   -0.8948 H         1 <0>         0.1393
     27 H5          0.7568   -1.6008    1.2356 H         1 <0>         0.0801
     28 H6          1.7647   -0.1336    1.2338 H         1 <0>         0.1081
     29 H7          0.2319   -0.1594    2.1383 H         1 <0>         0.0835
     30 H8         -1.8225   -0.2564    0.8803 H         1 <0>         0.4284
     31 H9         -0.8769   -2.2525   -1.0538 H         1 <0>         0.1400
     32 H10        -0.8062   -2.4075    0.7180 H         1 <0>         0.1466
     33 H11        -3.3047   -2.1538    0.7914 H         1 <0>         0.1343
     34 H12        -2.3435   -4.3876   -1.0513 H         1 <0>         0.0768
     35 H13        -2.1714   -4.3950    0.7203 H         1 <0>         0.0807
     36 H14        -2.1723   -6.2854   -0.1720 H         1 <0>         0.1244
     37 H15        -2.4643   -8.7294   -0.1527 H         1 <0>         0.1292
     38 H16        -6.6821   -8.2299    0.2375 H         1 <0>         0.1357
     39 H17        -6.3975   -5.7849    0.2303 H         1 <0>         0.1344
     40 H18        -5.7366  -10.3788   -0.3727 H         1 <0>         0.0847
     41 H19        -3.9764  -10.5872   -0.5359 H         1 <0>         0.0830
     42 H20        -3.7241  -10.3809    1.9223 H         1 <0>         0.0487
     43 H21        -5.4843  -10.1725    2.0855 H         1 <0>         0.0502
     44 H22        -3.8416  -12.4235    3.2640 H         1 <0>         0.0531
     45 H23        -5.6018  -12.2150    3.4272 H         1 <0>         0.0510
     46 H24        -4.6510  -14.6024    1.7707 H         1 <0>         0.1143
     47 H25        -6.9195  -14.0773    3.8719 H         1 <0>         0.0952
     48 H26        -6.7074  -15.6076    2.8647 H         1 <0>         0.0981
     49 H27        -4.4179  -15.9685    3.8952 H         1 <0>         0.1003
     50 H28        -4.6300  -14.4381    4.9024 H         1 <0>         0.0954
     51 H29        -3.0863   -2.3073   -2.0996 H         1 <0>         0.3905
     52 H30        -1.8879   -0.1129   -0.7598 H         1 <0>         0.4338
@<TRIPOS>BOND
     1    1    2 1
     2    1   23 1
     3    1   24 1
     4    1   25 1
     5    2    3 1
     6    2    4 1
     7    2   26 1
     8    3   27 1
     9    3   28 1
    10    3   29 1
    11    4    5 1
    12    4   30 1
    13    4   52 1
    14    5    6 1
    15    5   31 1
    16    5   32 1
    17    6    7 1
    18    6   22 1
    19    6   33 1
    20    7    8 1
    21    7   34 1
    22    7   35 1
    23    8    9 1
    24    9   14 ar
    25    9   10 ar
    26   10   11 ar
    27   10   36 1
    28   11   12 ar
    29   11   37 1
    30   12   13 ar
    31   12   15 1
    32   13   14 ar
    33   13   38 1
    34   14   39 1
    35   15   16 1
    36   15   40 1
    37   15   41 1
    38   16   17 1
    39   16   42 1
    40   16   43 1
    41   17   18 1
    42   18   19 1
    43   18   44 1
    44   18   45 1
    45   19   21 1
    46   19   20 1
    47   19   46 1
    48   20   21 1
    49   20   47 1
    50   20   48 1
    51   21   49 1
    52   21   50 1
    53   22   51 1
@<TRIPOS>MOLECULE
CHEMBL423
   52    53     0     0     0
SMALL
USER_CHARGES

@<TRIPOS>ATOM
      1 C1         -0.0187    1.5258    0.0104 C.3       1 <0>        -0.1852
      2 C2          0.0021   -0.0041    0.0020 C.3       1 <0>         0.0237
      3 C3          0.7421   -0.5109    1.2415 C.3       1 <0>        -0.1864
      4 N1         -1.3761   -0.5125    0.0124 N.4       1 <0>        -0.5019
      5 C4         -1.3591   -1.9758   -0.1163 C.3       1 <0>        -0.0456
      6 C5         -2.7945   -2.5054   -0.1054 C.3       1 <0>         0.0863
      7 C6         -2.7769   -4.0294   -0.2395 C.3       1 <0>         0.0300
      8 O1         -4.1170   -4.5137   -0.3464 O.3       1 <0>        -0.3022
      9 C7         -4.2793   -5.8570   -0.4731 C.ar      1 <0>         0.1161
     10 C8         -3.1718   -6.6923   -0.4883 C.ar      1 <0>        -0.2056
     11 C9         -3.3395   -8.0575   -0.6167 C.ar      1 <0>        -0.0736
     12 C10        -4.6098   -8.5916   -0.7305 C.ar      1 <0>        -0.1079
     13 C11        -5.7152   -7.7611   -0.7161 C.ar      1 <0>        -0.0707
     14 C12        -5.5531   -6.3958   -0.5817 C.ar      1 <0>        -0.1404
     15 C13        -4.7897  -10.0812   -0.8710 C.3       1 <0>        -0.0788
     16 C14        -4.9261  -10.7115    0.5165 C.3       1 <0>         0.0685
     17 O2         -5.0968  -12.1240    0.3833 O.3       1 <0>        -0.3856
     18 C15        -5.2345  -12.8127    1.6278 C.3       1 <0>         0.0951
     19 C16        -5.4104  -14.3097    1.3654 C.3       1 <0>        -0.1578
     20 C17        -6.7342  -14.9502    1.7876 C.3       1 <0>        -0.1762
     21 C18        -5.4576  -15.2390    2.5800 C.3       1 <0>        -0.1729
     22 O3         -3.4268   -2.1426    1.1237 O.3       1 <0>        -0.5433
     23 H1          1.0039    1.9031    0.0027 H         1 <0>         0.1083
     24 H2         -0.5459    1.8868   -0.8726 H         1 <0>         0.0831
     25 H3         -0.5289    1.8773    0.9072 H         1 <0>         0.0829
     26 H4          0.5123   -0.3556   -0.8948 H         1 <0>         0.1399
     27 H5          0.7568   -1.6008    1.2356 H         1 <0>         0.0795
     28 H6          1.7647   -0.1336    1.2338 H         1 <0>         0.1081
     29 H7          0.2319   -0.1594    2.1383 H         1 <0>         0.0833
     30 H8         -1.8225   -0.2564    0.8803 H         1 <0>         0.4313
     31 H9         -0.8769   -2.2525   -1.0538 H         1 <0>         0.1467
     32 H10        -0.8062   -2.4075    0.7180 H         1 <0>         0.1402
     33 H11        -3.3474   -2.0736   -0.9397 H         1 <0>         0.1356
     34 H12        -2.2171   -4.3091   -1.1320 H         1 <0>         0.0815
     35 H13        -2.3018   -4.4659    0.6390 H         1 <0>         0.0760
     36 H14        -2.1793   -6.2756   -0.4002 H         1 <0>         0.1244
     37 H15        -2.4776   -8.7082   -0.6286 H         1 <0>         0.1292
     38 H16        -6.7063   -8.1806   -0.8055 H         1 <0>         0.1357
     39 H17        -6.4171   -5.7480   -0.5661 H         1 <0>         0.1344
     40 H18        -5.6886  -10.2853   -1.4527 H         1 <0>         0.0847
     41 H19        -3.9239  -10.5054   -1.3793 H         1 <0>         0.0830
     42 H20        -4.0273  -10.5073    1.0982 H         1 <0>         0.0487
     43 H21        -5.7920  -10.2872    1.0247 H         1 <0>         0.0503
     44 H22        -4.3421  -12.6522    2.2326 H         1 <0>         0.0531
     45 H23        -6.1068  -12.4320    2.1591 H         1 <0>         0.0511
     46 H24        -4.9340  -14.6876    0.4608 H         1 <0>         0.1143
     47 H25        -7.4798  -14.3051    2.2523 H         1 <0>         0.0952
     48 H26        -7.1290  -15.7496    1.1606 H         1 <0>         0.0980
     49 H27        -5.0126  -16.2284    2.4743 H         1 <0>         0.1003
     50 H28        -5.3634  -14.7838    3.5659 H         1 <0>         0.0955
     51 H29        -2.9873   -2.4932    1.9105 H         1 <0>         0.3896
     52 H30        -1.8879   -0.1129   -0.7598 H         1 <0>         0.4308
@<TRIPOS>BOND
     1    1    2 1
     2    1   23 1
     3    1   24 1
     4    1   25 1
     5    2    3 1
     6    2    4 1
     7    2   26 1
     8    3   27 1
     9    3   28 1
    10    3   29 1
    11    4    5 1
    12    4   30 1
    13    4   52 1
    14    5    6 1
    15    5   31 1
    16    5   32 1
    17    6    7 1
    18    6   22 1
    19    6   33 1
    20    7    8 1
    21    7   34 1
    22    7   35 1
    23    8    9 1
    24    9   14 ar
    25    9   10 ar
    26   10   11 ar
    27   10   36 1
    28   11   12 ar
    29   11   37 1
    30   12   13 ar
    31   12   15 1
    32   13   14 ar
    33   13   38 1
    34   14   39 1
    35   15   16 1
    36   15   40 1
    37   15   41 1
    38   16   17 1
    39   16   42 1
    40   16   43 1
    41   17   18 1
    42   18   19 1
    43   18   44 1
    44   18   45 1
    45   19   21 1
    46   19   20 1
    47   19   46 1
    48   20   21 1
    49   20   47 1
    50   20   48 1
    51   21   49 1
    52   21   50 1
    53   22   51 1
@<TRIPOS>MOLECULE
CHEMBL1083668
   45    46     0     0     0
SMALL
USER_CHARGES

@<TRIPOS>ATOM
      1 C1         -0.0187    1.5258    0.0104 C.3       1 <0>        -0.1430
      2 C2          0.0021   -0.0041    0.0020 C.3       1 <0>        -0.0528
      3 C3          0.7421   -0.5109    1.2415 C.3       1 <0>        -0.1424
      4 C4         -1.4117   -0.5257    0.0127 C.ar      1 <0>        -0.1037
      5 C5         -2.2592   -0.2048    1.0557 C.ar      1 <0>        -0.0785
      6 C6         -3.5561   -0.6834    1.0663 C.ar      1 <0>        -0.1545
      7 C7         -4.0087   -1.4838    0.0335 C.ar      1 <0>        -0.0854
      8 C8         -3.1656   -1.8071   -1.0117 C.ar      1 <0>        -0.2085
      9 C9         -1.8651   -1.3237   -1.0273 C.ar      1 <0>         0.1284
     10 O1         -1.0353   -1.6358   -2.0574 O.3       1 <0>        -0.2996
     11 C10        -1.5698   -2.4619   -3.0937 C.3       1 <0>         0.0277
     12 C11        -0.4971   -2.7036   -4.1575 C.3       1 <0>         0.1162
     13 C12        -1.1042   -3.4825   -5.3261 C.3       1 <0>         0.0252
     14 N1         -0.0743   -3.7146   -6.3476 N.3       1 <0>        -0.5245
     15 C13         0.3519   -2.4493   -6.9631 C.3       1 <0>         0.0136
     16 C14         1.4649   -2.7302   -7.9760 C.3       1 <0>         0.0636
     17 O2          0.9950   -3.6720   -8.9442 O.3       1 <0>        -0.3853
     18 C15         0.5724   -4.9160   -8.3794 C.3       1 <0>         0.0634
     19 C16        -0.5498   -4.6573   -7.3705 C.3       1 <0>         0.0171
     20 O3          0.5761   -3.4568   -3.5893 O.3       1 <0>        -0.5353
     21 H1          1.0039    1.9031    0.0027 H         1 <0>         0.0585
     22 H2         -0.5459    1.8868   -0.8726 H         1 <0>         0.0538
     23 H3         -0.5289    1.8773    0.9072 H         1 <0>         0.0550
     24 H4          0.5123   -0.3556   -0.8948 H         1 <0>         0.0863
     25 H5          0.2319   -0.1594    2.1383 H         1 <0>         0.0546
     26 H6          0.7568   -1.6008    1.2356 H         1 <0>         0.0547
     27 H7          1.7647   -0.1336    1.2338 H         1 <0>         0.0584
     28 H8         -1.9081    0.4202    1.8635 H         1 <0>         0.1283
     29 H9         -4.2168   -0.4320    1.8828 H         1 <0>         0.1237
     30 H10        -5.0222   -1.8568    0.0443 H         1 <0>         0.1236
     31 H11        -3.5195   -2.4323   -1.8181 H         1 <0>         0.1245
     32 H12        -1.8844   -3.4163   -2.6715 H         1 <0>         0.0664
     33 H13        -2.4271   -1.9654   -3.5483 H         1 <0>         0.0693
     34 H14        -0.1190   -1.7463   -4.5163 H         1 <0>         0.1081
     35 H15        -1.4822   -4.4398   -4.9673 H         1 <0>         0.0839
     36 H16        -1.9228   -2.9080   -5.7595 H         1 <0>         0.0483
     37 H17        -0.4951   -1.9884   -7.4714 H         1 <0>         0.0433
     38 H18         0.7239   -1.7760   -6.1908 H         1 <0>         0.0900
     39 H19         1.7445   -1.8029   -8.4761 H         1 <0>         0.0996
     40 H20         2.3320   -3.1415   -7.4592 H         1 <0>         0.0629
     41 H21         0.2064   -5.5696   -9.1712 H         1 <0>         0.0995
     42 H22         1.4135   -5.3909   -7.8743 H         1 <0>         0.0619
     43 H23        -0.8359   -5.5958   -6.8957 H         1 <0>         0.0871
     44 H24        -1.4111   -4.2317   -7.8854 H         1 <0>         0.0435
     45 H25         0.3120   -4.3224   -3.2487 H         1 <0>         0.3731
@<TRIPOS>BOND
     1    1    2 1
     2    1   21 1
     3    1   22 1
     4    1   23 1
     5    2    3 1
     6    2    4 1
     7    2   24 1
     8    3   25 1
     9    3   26 1
    10    3   27 1
    11    4    9 ar
    12    4    5 ar
    13    5    6 ar
    14    5   28 1
    15    6    7 ar
    16    6   29 1
    17    7    8 ar
    18    7   30 1
    19    8    9 ar
    20    8   31 1
    21    9   10 1
    22   10   11 1
    23   11   12 1
    24   11   32 1
    25   11   33 1
    26   12   13 1
    27   12   20 1
    28   12   34 1
    29   13   14 1
    30   13   35 1
    31   13   36 1
    32   14   19 1
    33   14   15 1
    34   15   16 1
    35   15   37 1
    36   15   38 1
    37   16   17 1
    38   16   39 1
    39   16   40 1
    40   17   18 1
    41   18   19 1
    42   18   41 1
    43   18   42 1
    44   19   43 1
    45   19   44 1
    46   20   45 1
@<TRIPOS>MOLECULE
CHEMBL1083668
   46    47     0     0     0
SMALL
USER_CHARGES

@<TRIPOS>ATOM
      1 C1         -0.0187    1.5258    0.0104 C.3       1 <0>        -0.1458
      2 C2          0.0021   -0.0041    0.0020 C.3       1 <0>        -0.0505
      3 C3          0.7421   -0.5109    1.2415 C.3       1 <0>        -0.1454
      4 C4         -1.4117   -0.5257    0.0127 C.ar      1 <0>        -0.0965
      5 C5         -2.2592   -0.2048    1.0557 C.ar      1 <0>        -0.0765
      6 C6         -3.5561   -0.6834    1.0663 C.ar      1 <0>        -0.1428
      7 C7         -4.0087   -1.4838    0.0335 C.ar      1 <0>        -0.0850
      8 C8         -3.1656   -1.8071   -1.0117 C.ar      1 <0>        -0.2059
      9 C9         -1.8651   -1.3237   -1.0273 C.ar      1 <0>         0.1168
     10 O1         -1.0353   -1.6358   -2.0574 O.3       1 <0>        -0.2993
     11 C10        -1.5698   -2.4619   -3.0937 C.3       1 <0>         0.0303
     12 C11        -0.4971   -2.7036   -4.1575 C.3       1 <0>         0.0861
     13 C12        -1.1042   -3.4825   -5.3261 C.3       1 <0>        -0.0427
     14 N1         -0.0743   -3.7146   -6.3476 N.4       1 <0>        -0.3799
     15 C13         0.3492   -2.4281   -6.9175 C.3       1 <0>        -0.0502
     16 C14         1.4224   -2.6725   -7.9813 C.3       1 <0>         0.0372
     17 O2          0.8998   -3.5458   -8.9863 O.3       1 <0>        -0.3559
     18 C15         0.4513   -4.8045   -8.4761 C.3       1 <0>         0.0359
     19 C16        -0.6237   -4.5640   -7.4133 C.3       1 <0>        -0.0438
     20 O3          0.5761   -3.4568   -3.5893 O.3       1 <0>        -0.5427
     21 H1          1.0039    1.9031    0.0027 H         1 <0>         0.0608
     22 H2         -0.5459    1.8868   -0.8726 H         1 <0>         0.0536
     23 H3         -0.5289    1.8773    0.9072 H         1 <0>         0.0584
     24 H4          0.5123   -0.3556   -0.8948 H         1 <0>         0.0820
     25 H5          0.2319   -0.1594    2.1383 H         1 <0>         0.0580
     26 H6          0.7568   -1.6008    1.2356 H         1 <0>         0.0542
     27 H7          1.7647   -0.1336    1.2338 H         1 <0>         0.0608
     28 H8         -1.9081    0.4202    1.8635 H         1 <0>         0.1330
     29 H9         -4.2168   -0.4320    1.8828 H         1 <0>         0.1290
     30 H10        -5.0222   -1.8568    0.0443 H         1 <0>         0.1276
     31 H11        -3.5195   -2.4323   -1.8181 H         1 <0>         0.1226
     32 H12        -1.8844   -3.4163   -2.6715 H         1 <0>         0.0760
     33 H13        -2.4271   -1.9654   -3.5483 H         1 <0>         0.0805
     34 H14        -0.1190   -1.7463   -4.5163 H         1 <0>         0.1342
     35 H15        -1.4822   -4.4398   -4.9673 H         1 <0>         0.1406
     36 H16        -1.9228   -2.9080   -5.7595 H         1 <0>         0.1456
     37 H17        -0.5080   -1.9324   -7.3730 H         1 <0>         0.1405
     38 H18         0.7571   -1.7972   -6.1277 H         1 <0>         0.1442
     39 H19         1.7072   -1.7236   -8.4358 H         1 <0>         0.1437
     40 H20         2.2958   -3.1318   -7.5183 H         1 <0>         0.0833
     41 H21         0.0332   -5.3985   -9.2888 H         1 <0>         0.1435
     42 H22         1.2915   -5.3367   -8.0301 H         1 <0>         0.0823
     43 H23        -0.9381   -5.5187   -6.9915 H         1 <0>         0.1431
     44 H24        -1.4806   -4.0675   -7.8686 H         1 <0>         0.1401
     45 H25         0.3120   -4.3224   -3.2487 H         1 <0>         0.3904
     46 H26         0.7195   -4.1739   -5.9268 H         1 <0>         0.4285
@<TRIPOS>BOND
     1    1    2 1
     2    1   21 1
     3    1   22 1
     4    1   23 1
     5    2    3 1
     6    2    4 1
     7    2   24 1
     8    3   25 1
     9    3   26 1
    10    3   27 1
    11    4    9 ar
    12    4    5 ar
    13    5    6 ar
    14    5   28 1
    15    6    7 ar
    16    6   29 1
    17    7    8 ar
    18    7   30 1
    19    8    9 ar
    20    8   31 1
    21    9   10 1
    22   10   11 1
    23   11   12 1
    24   11   32 1
    25   11   33 1
    26   12   13 1
    27   12   20 1
    28   12   34 1
    29   13   14 1
    30   13   35 1
    31   13   36 1
    32   14   19 1
    33   14   15 1
    34   14   46 1
    35   15   16 1
    36   15   37 1
    37   15   38 1
    38   16   17 1
    39   16   39 1
    40   16   40 1
    41   17   18 1
    42   18   19 1
    43   18   41 1
    44   18   42 1
    45   19   43 1
    46   19   44 1
    47   20   45 1
@<TRIPOS>MOLECULE
CHEMBL1083668
   45    46     0     0     0
SMALL
USER_CHARGES

@<TRIPOS>ATOM
      1 C1         -0.0614    1.5781   -0.0342 C.3       1 <0>        -0.1425
      2 C2         -0.0156    0.0488   -0.0323 C.3       1 <0>        -0.0528
      3 C3          0.7429   -0.4372    1.2044 C.3       1 <0>        -0.1429
      4 C4         -1.4205   -0.4959   -0.0061 C.ar      1 <0>        -0.1037
      5 C5         -2.2644   -0.1817    1.0417 C.ar      1 <0>        -0.0784
      6 C6         -3.5531   -0.6814    1.0666 C.ar      1 <0>        -0.1546
      7 C7         -4.0011   -1.4964    0.0431 C.ar      1 <0>        -0.0854
      8 C8         -3.1614   -1.8131   -1.0069 C.ar      1 <0>        -0.2087
      9 C9         -1.8692   -1.3085   -1.0368 C.ar      1 <0>         0.1285
     10 O1         -1.0430   -1.6142   -2.0716 O.3       1 <0>        -0.2994
     11 C10        -1.5724   -2.4562   -3.0976 C.3       1 <0>         0.0274
     12 C11        -0.5047   -2.6877   -4.1688 C.3       1 <0>         0.1189
     13 C12        -1.0275   -3.6875   -5.2023 C.3       1 <0>         0.0249
     14 N1          0.0024   -3.9195   -6.2237 N.3       1 <0>        -0.5249
     15 C13        -0.5867   -4.4824   -7.4475 C.3       1 <0>         0.0177
     16 C14         0.5089   -4.6521   -8.5034 C.3       1 <0>         0.0632
     17 O2          1.5500   -5.4776   -7.9744 O.3       1 <0>        -0.3852
     18 C15         2.1465   -4.9590   -6.7825 C.3       1 <0>         0.0634
     19 C16         1.0675   -4.7924   -5.7092 C.3       1 <0>         0.0149
     20 O3         -0.2017   -1.4495   -4.8147 O.3       1 <0>        -0.5351
     21 H1          0.9547    1.9720   -0.0532 H         1 <0>         0.0584
     22 H2         -0.6018    1.9242   -0.9153 H         1 <0>         0.0547
     23 H3         -0.5699    1.9275    0.8644 H         1 <0>         0.0546
     24 H4          0.4929   -0.3006   -0.9309 H         1 <0>         0.0864
     25 H5          0.2345   -0.0878    2.1030 H         1 <0>         0.0550
     26 H6          0.7756   -1.5267    1.2058 H         1 <0>         0.0538
     27 H7          1.7591   -0.0432    1.1855 H         1 <0>         0.0585
     28 H8         -1.9169    0.4546    1.8422 H         1 <0>         0.1282
     29 H9         -4.2111   -0.4352    1.8869 H         1 <0>         0.1236
     30 H10        -5.0082   -1.8858    0.0650 H         1 <0>         0.1236
     31 H11        -3.5117   -2.4497   -1.8059 H         1 <0>         0.1244
     32 H12        -1.8677   -3.4126   -2.6664 H         1 <0>         0.0691
     33 H13        -2.4414   -1.9770   -3.5484 H         1 <0>         0.0659
     34 H14         0.3972   -3.0848   -3.7030 H         1 <0>         0.1073
     35 H15        -1.2677   -4.6288   -4.7080 H         1 <0>         0.0505
     36 H16        -1.9240   -3.2862   -5.6748 H         1 <0>         0.0823
     37 H17        -1.0309   -5.4525   -7.2247 H         1 <0>         0.0434
     38 H18        -1.3549   -3.8077   -7.8253 H         1 <0>         0.0871
     39 H19         0.0880   -5.1220   -9.3923 H         1 <0>         0.0994
     40 H20         0.9163   -3.6756   -8.7654 H         1 <0>         0.0621
     41 H21         2.9099   -5.6509   -6.4268 H         1 <0>         0.0997
     42 H22         2.6015   -3.9915   -6.9944 H         1 <0>         0.0629
     43 H23         1.5068   -4.3441   -4.8180 H         1 <0>         0.0880
     44 H24         0.6498   -5.7675   -5.4586 H         1 <0>         0.0439
     45 H25        -0.9598   -1.0380   -5.2518 H         1 <0>         0.3718
@<TRIPOS>BOND
     1    1    2 1
     2    1   21 1
     3    1   22 1
     4    1   23 1
     5    2    3 1
     6    2    4 1
     7    2   24 1
     8    3   25 1
     9    3   26 1
    10    3   27 1
    11    4    9 ar
    12    4    5 ar
    13    5    6 ar
    14    5   28 1
    15    6    7 ar
    16    6   29 1
    17    7    8 ar
    18    7   30 1
    19    8    9 ar
    20    8   31 1
    21    9   10 1
    22   10   11 1
    23   11   12 1
    24   11   32 1
    25   11   33 1
    26   12   13 1
    27   12   20 1
    28   12   34 1
    29   13   14 1
    30   13   35 1
    31   13   36 1
    32   14   19 1
    33   14   15 1
    34   15   16 1
    35   15   37 1
    36   15   38 1
    37   16   17 1
    38   16   39 1
    39   16   40 1
    40   17   18 1
    41   18   19 1
    42   18   41 1
    43   18   42 1
    44   19   43 1
    45   19   44 1
    46   20   45 1
@<TRIPOS>MOLECULE
CHEMBL1083668
   46    47     0     0     0
SMALL
USER_CHARGES

@<TRIPOS>ATOM
      1 C1          0.1639    1.1901    0.2893 C.3       1 <0>        -0.1455
      2 C2          0.1284   -0.3367    0.1966 C.3       1 <0>        -0.0505
      3 C3          0.8472   -0.9379    1.4061 C.3       1 <0>        -0.1457
      4 C4         -1.3037   -0.8057    0.1791 C.ar      1 <0>        -0.0965
      5 C5         -2.1405   -0.5117    1.2385 C.ar      1 <0>        -0.0765
      6 C6         -3.4542   -0.9421    1.2233 C.ar      1 <0>        -0.1428
      7 C7         -3.9342   -1.6672    0.1481 C.ar      1 <0>        -0.0850
      8 C8         -3.1018   -1.9633   -0.9136 C.ar      1 <0>        -0.2059
      9 C9         -1.7844   -1.5280   -0.9031 C.ar      1 <0>         0.1168
     10 O1         -0.9649   -1.8132   -1.9491 O.3       1 <0>        -0.2992
     11 C10        -1.5278   -2.5607   -3.0291 C.3       1 <0>         0.0303
     12 C11        -0.4630   -2.7828   -4.1051 C.3       1 <0>         0.0861
     13 C12        -1.0275   -3.6875   -5.2023 C.3       1 <0>        -0.0427
     14 N1          0.0024   -3.9195   -6.2237 N.4       1 <0>        -0.3800
     15 C13        -0.5802   -4.6685   -7.3456 C.3       1 <0>        -0.0438
     16 C14         0.4947   -4.9088   -8.4086 C.3       1 <0>         0.0358
     17 O2          1.5912   -5.6135   -7.8195 O.3       1 <0>        -0.3558
     18 C15         2.1778   -4.9343   -6.7058 C.3       1 <0>         0.0371
     19 C16         1.1060   -4.6940   -5.6396 C.3       1 <0>        -0.0501
     20 O3         -0.0879   -1.5253   -4.6708 O.3       1 <0>        -0.5426
     21 H1          1.1997    1.5293    0.3020 H         1 <0>         0.0608
     22 H2         -0.3482    1.6184   -0.5723 H         1 <0>         0.0542
     23 H3         -0.3345    1.5103    1.2043 H         1 <0>         0.0581
     24 H4          0.6268   -0.6568   -0.7184 H         1 <0>         0.0820
     25 H5          0.3488   -0.6178    2.3211 H         1 <0>         0.0584
     26 H6          0.8218   -2.0256    1.3400 H         1 <0>         0.0536
     27 H7          1.8830   -0.5987    1.4187 H         1 <0>         0.0608
     28 H8         -1.7679    0.0545    2.0794 H         1 <0>         0.1330
     29 H9         -4.1065   -0.7119    2.0527 H         1 <0>         0.1290
     30 H10        -4.9608   -2.0026    0.1387 H         1 <0>         0.1276
     31 H11        -3.4772   -2.5297   -1.7531 H         1 <0>         0.1226
     32 H12        -1.8780   -3.5247   -2.6601 H         1 <0>         0.0804
     33 H13        -2.3654   -2.0087   -3.4554 H         1 <0>         0.0761
     34 H14         0.4117   -3.2557   -3.6586 H         1 <0>         0.1339
     35 H15        -1.3295   -4.6404   -4.7678 H         1 <0>         0.1455
     36 H16        -1.8919   -3.2068   -5.6605 H         1 <0>         0.1407
     37 H17        -0.9572   -5.6262   -6.9867 H         1 <0>         0.1401
     38 H18        -1.3990   -4.0948   -7.7797 H         1 <0>         0.1431
     39 H19         0.0762   -5.5014   -9.2221 H         1 <0>         0.1435
     40 H20         0.8434   -3.9517   -8.7965 H         1 <0>         0.0824
     41 H21         2.9774   -5.5453   -6.2869 H         1 <0>         0.1437
     42 H22         2.5841   -3.9781   -7.0354 H         1 <0>         0.0834
     43 H23         1.5390   -4.1392   -4.8073 H         1 <0>         0.1440
     44 H24         0.7285   -5.6517   -5.2814 H         1 <0>         0.1406
     45 H25        -0.8185   -1.0475   -5.0867 H         1 <0>         0.3905
     46 H26         0.3522   -3.0334   -6.5562 H         1 <0>         0.4286
@<TRIPOS>BOND
     1    1    2 1
     2    1   21 1
     3    1   22 1
     4    1   23 1
     5    2    3 1
     6    2    4 1
     7    2   24 1
     8    3   25 1
     9    3   26 1
    10    3   27 1
    11    4    9 ar
    12    4    5 ar
    13    5    6 ar
    14    5   28 1
    15    6    7 ar
    16    6   29 1
    17    7    8 ar
    18    7   30 1
    19    8    9 ar
    20    8   31 1
    21    9   10 1
    22   10   11 1
    23   11   12 1
    24   11   32 1
    25   11   33 1
    26   12   13 1
    27   12   20 1
    28   12   34 1
    29   13   14 1
    30   13   35 1
    31   13   36 1
    32   14   19 1
    33   14   15 1
    34   14   46 1
    35   15   16 1
    36   15   37 1
    37   15   38 1
    38   16   17 1
    39   16   39 1
    40   16   40 1
    41   17   18 1
    42   18   19 1
    43   18   41 1
    44   18   42 1
    45   19   43 1
    46   19   44 1
    47   20   45 1
@<TRIPOS>MOLECULE
CHEMBL218210
   85    89     0     0     0
SMALL
USER_CHARGES

@<TRIPOS>ATOM
      1 C1          0.2942    1.2582    0.2970 C.3       1 <0>        -0.1821
      2 C2          0.0665   -0.2460    0.1342 C.3       1 <0>         0.0599
      3 C3          0.6219   -0.9810    1.3557 C.3       1 <0>        -0.1815
      4 C4         -1.4328   -0.5243    0.0095 C.3       1 <0>        -0.0906
      5 C5         -2.1383   -0.0409    1.2503 C.ar      1 <0>        -0.0988
      6 C6         -2.2992   -0.8915    2.3284 C.ar      1 <0>        -0.0945
      7 C7         -2.9460   -0.4510    3.4668 C.ar      1 <0>        -0.1111
      8 C8         -3.4338    0.8465    3.5280 C.ar      1 <0>         0.1136
      9 C9         -3.2705    1.6982    2.4449 C.ar      1 <0>        -0.1096
     10 C10        -2.6185    1.2544    1.3109 C.ar      1 <0>        -0.0948
     11 O1         -4.0708    1.2821    4.6466 O.3       1 <0>        -0.2437
     12 C11        -3.3154    1.6018    5.7250 C.ar      1 <0>         0.3365
     13 C12        -3.9383    1.9476    6.9207 C.ar      1 <0>        -0.1823
     14 C13        -3.1640    2.2720    8.0153 C.ar      1 <0>         0.0210
     15 C14        -1.7683    2.2399    7.8772 C.ar      1 <0>        -0.2198
     16 C15        -1.2182    1.8831    6.6455 C.ar      1 <0>         0.1753
     17 N1         -1.9949    1.5754    5.6279 N.ar      1 <0>        -0.5341
     18 C16        -0.8947    2.5788    9.0178 C.2       1 <0>         0.5701
     19 O2         -1.3836    2.8889   10.0869 O.2       1 <0>        -0.5292
     20 N2          0.4450    2.5447    8.8740 N.am      1 <0>        -0.8495
     21 N3          0.7543   -0.7172   -1.0753 N.4       1 <0>        -0.4975
     22 C17         2.1938   -0.4500   -0.9557 C.3       1 <0>        -0.0510
     23 C18         2.9101   -0.9408   -2.2154 C.3       1 <0>         0.0872
     24 H1          2.5144   -0.4172   -3.0857 H         1 <0>         0.1350
     25 C19         4.4094   -0.6625   -2.0908 C.3       1 <0>         0.0303
     26 O3          5.0622   -1.0136   -3.3125 O.3       1 <0>        -0.2987
     27 C20         6.4078   -0.8263   -3.3694 C.ar      1 <0>         0.1370
     28 C21         7.0865   -0.3211   -2.2720 C.ar      1 <0>        -0.2020
     29 C22         8.4560   -0.1297   -2.3277 C.ar      1 <0>        -0.0690
     30 C23         9.1573   -0.4400   -3.4764 C.ar      1 <0>        -0.1314
     31 C24         8.4879   -0.9464   -4.5812 C.ar      1 <0>         0.1308
     32 C25         7.1085   -1.1462   -4.5270 C.ar      1 <0>         0.0687
     33 N4          6.7269   -1.6635   -5.7649 N.am      1 <0>        -0.5293
     34 C26         7.8268   -1.7774   -6.5330 C.2       1 <0>         0.6793
     35 O4          7.8439   -2.1975   -7.6751 O.2       1 <0>        -0.5429
     36 N5          8.9032   -1.3447   -5.8497 N.am      1 <0>        -0.6409
     37 H2          9.8147   -1.3239   -6.1808 H         1 <0>         0.4399
     38 C27         5.3628   -2.0216   -6.1614 C.3       1 <0>         0.1349
     39 C28         4.6805   -0.8075   -6.7949 C.3       1 <0>        -0.1256
     40 C29         3.2559   -1.1814   -7.2090 C.3       1 <0>        -0.0834
     41 C30         3.2923   -2.1952   -8.3713 C.3       1 <0>        -0.1266
     42 C31         2.0980   -1.7868   -9.2690 C.3       1 <0>        -0.1259
     43 C32         2.1283   -0.2400   -9.1955 C.3       1 <0>        -0.1277
     44 C33         2.5158    0.0617   -7.7331 C.3       1 <0>        -0.1177
     45 O5          2.6974   -2.3457   -2.3675 O.3       1 <0>        -0.5426
     46 H3          1.3624    1.4565    0.3858 H         1 <0>         0.0820
     47 H4         -0.1014    1.7819   -0.5733 H         1 <0>         0.0839
     48 H5         -0.2161    1.6079    1.1945 H         1 <0>         0.1120
     49 H6          0.1116   -0.6314    2.2532 H         1 <0>         0.1123
     50 H7          0.4597   -2.0526    1.2397 H         1 <0>         0.0833
     51 H8          1.6900   -0.7827    1.4445 H         1 <0>         0.0814
     52 H9         -1.8284   -0.0006   -0.8607 H         1 <0>         0.0993
     53 H10        -1.5950   -1.5959   -0.1065 H         1 <0>         0.0992
     54 H11        -1.9193   -1.9014    2.2803 H         1 <0>         0.1317
     55 H12        -3.0721   -1.1161    4.3084 H         1 <0>         0.1326
     56 H13        -3.6497    2.7085    2.4899 H         1 <0>         0.1366
     57 H14        -2.4876    1.9182    0.4691 H         1 <0>         0.1331
     58 H15        -5.0160    1.9621    6.9906 H         1 <0>         0.1567
     59 H16        -3.6209    2.5444    8.9552 H         1 <0>         0.1619
     60 H17        -0.1451    1.8547    6.5270 H         1 <0>         0.1641
     61 H18         0.8351    2.2973    8.0210 H         1 <0>         0.3985
     62 H19         1.0190    2.7674    9.6235 H         1 <0>         0.4111
     63 H20         0.6041   -1.7092   -1.1827 H         1 <0>         0.4318
     64 H21         2.3560    0.6216   -0.8397 H         1 <0>         0.1490
     65 H22         2.5894   -0.9737   -0.0854 H         1 <0>         0.1425
     66 H23         4.5665    0.3965   -1.8862 H         1 <0>         0.0835
     67 H24         4.8224   -1.2554   -1.2747 H         1 <0>         0.0789
     68 H25         6.5450   -0.0757   -1.3703 H         1 <0>         0.1343
     69 H26         8.9788    0.2647   -1.4690 H         1 <0>         0.1403
     70 H27        10.2259   -0.2883   -3.5146 H         1 <0>         0.1386
     71 H28         5.3966   -2.8373   -6.8836 H         1 <0>         0.0924
     72 H29         4.8000   -2.3372   -5.2828 H         1 <0>         0.0947
     73 H30         4.6467    0.0082   -6.0727 H         1 <0>         0.0648
     74 H31         5.2432   -0.4918   -7.6735 H         1 <0>         0.0700
     75 H32         2.7195   -1.6049   -6.3599 H         1 <0>         0.0709
     76 H33         4.2294   -2.1111   -8.9215 H         1 <0>         0.0713
     77 H34         3.1584   -3.2100   -7.9966 H         1 <0>         0.0654
     78 H35         2.2501   -2.1279  -10.2930 H         1 <0>         0.0681
     79 H36         1.1620   -2.1744   -8.8667 H         1 <0>         0.0654
     80 H37         2.8775    0.1598   -9.8789 H         1 <0>         0.0666
     81 H38         1.1450    0.1721   -9.4224 H         1 <0>         0.0650
     82 H39         1.6198    0.2410   -7.1388 H         1 <0>         0.0595
     83 H40         3.1716    0.9314   -7.6924 H         1 <0>         0.0633
     84 H41         3.0255   -2.8755   -1.6280 H         1 <0>         0.3897
     85 H42         0.3880   -0.2325   -1.8809 H         1 <0>         0.4289
@<TRIPOS>BOND
     1    1    2 1
     2    1   46 1
     3    1   47 1
     4    1   48 1
     5    2    3 1
     6    2    4 1
     7    2   21 1
     8    3   49 1
     9    3   50 1
    10    3   51 1
    11    4    5 1
    12    4   52 1
    13    4   53 1
    14    5   10 ar
    15    5    6 ar
    16    6    7 ar
    17    6   54 1
    18    7    8 ar
    19    7   55 1
    20    8    9 ar
    21    8   11 1
    22    9   10 ar
    23    9   56 1
    24   10   57 1
    25   11   12 1
    26   12   17 ar
    27   12   13 ar
    28   13   14 ar
    29   13   58 1
    30   14   15 ar
    31   14   59 1
    32   15   16 ar
    33   15   18 1
    34   16   17 ar
    35   16   60 1
    36   18   19 2
    37   18   20 am
    38   20   61 1
    39   20   62 1
    40   21   22 1
    41   21   63 1
    42   21   85 1
    43   22   23 1
    44   22   64 1
    45   22   65 1
    46   23   24 1
    47   23   25 1
    48   23   45 1
    49   25   26 1
    50   25   66 1
    51   25   67 1
    52   26   27 1
    53   27   32 ar
    54   27   28 ar
    55   28   29 ar
    56   28   68 1
    57   29   30 ar
    58   29   69 1
    59   30   31 ar
    60   30   70 1
    61   31   36 1
    62   31   32 ar
    63   32   33 1
    64   33   34 am
    65   33   38 1
    66   34   35 2
    67   34   36 am
    68   36   37 1
    69   38   39 1
    70   38   71 1
    71   38   72 1
    72   39   40 1
    73   39   73 1
    74   39   74 1
    75   40   44 1
    76   40   41 1
    77   40   75 1
    78   41   42 1
    79   41   76 1
    80   41   77 1
    81   42   43 1
    82   42   78 1
    83   42   79 1
    84   43   44 1
    85   43   80 1
    86   43   81 1
    87   44   82 1
    88   44   83 1
    89   45   84 1
@<TRIPOS>MOLECULE
CHEMBL461463
   67    71     0     0     0
SMALL
USER_CHARGES

@<TRIPOS>ATOM
      1 C1         -0.0184    1.5028    0.0103 C.3       1 <0>        -0.0792
      2 C2          0.0021   -0.0041    0.0020 C.2       1 <0>        -0.1464
      3 C3          0.0085   -0.7965   -1.0811 C.2       1 <0>         0.0316
      4 N1          0.0284   -2.1107   -0.6970 N.pl3     1 <0>        -0.5936
      5 H1          0.0366   -2.8683   -1.3027 H         1 <0>         0.4179
      6 C4          0.0354   -2.1964    0.6773 C.ar      1 <0>         0.1339
      7 C5          0.0251   -0.8817    1.1747 C.ar      1 <0>        -0.1337
      8 C6          0.0344   -0.6578    2.5568 C.ar      1 <0>         0.1831
      9 C7          0.0569   -1.7352    3.4215 C.ar      1 <0>        -0.2502
     10 C8          0.0704   -3.0310    2.9258 C.ar      1 <0>        -0.0560
     11 C9          0.0540   -3.2654    1.5684 C.ar      1 <0>        -0.1718
     12 O1          0.0217    0.6104    3.0443 O.3       1 <0>        -0.2947
     13 C10         0.0323    0.7592    4.4655 C.3       1 <0>         0.0265
     14 C11         0.0155    2.2469    4.8226 C.3       1 <0>         0.1167
     15 C12         0.1524    2.4092    6.3378 C.3       1 <0>         0.0267
     16 N2          0.1363    3.8375    6.6807 N.3       1 <0>        -0.5262
     17 C13         1.3249    4.5199    6.1504 C.3       1 <0>         0.0569
     18 C14         1.2313    6.0160    6.4593 C.3       1 <0>         0.0584
     19 N3          1.1220    6.2076    7.9122 N.3       1 <0>        -0.5284
     20 C15        -0.0666    5.5252    8.4426 C.3       1 <0>         0.0567
     21 C16         0.0270    4.0291    8.1336 C.3       1 <0>         0.0601
     22 C17         1.1058    7.6359    8.2551 C.3       1 <0>         0.1681
     23 C18         0.9931    7.7925    9.7497 C.ar      1 <0>        -0.0763
     24 C19         1.6995    6.9505   10.5881 C.ar      1 <0>        -0.0909
     25 C20         1.5962    7.0941   11.9591 C.ar      1 <0>        -0.1242
     26 C21         0.7867    8.0800   12.4917 C.ar      1 <0>        -0.1188
     27 C22         0.0810    8.9226   11.6533 C.ar      1 <0>        -0.1203
     28 C23         0.1877    8.7817   10.2823 C.ar      1 <0>        -0.1128
     29 C24         2.3808    8.2817    7.7771 C.ar      1 <0>        -0.0761
     30 C25         3.5831    7.6104    7.8981 C.ar      1 <0>        -0.0896
     31 C26         4.7526    8.2028    7.4596 C.ar      1 <0>        -0.1244
     32 C27         4.7197    9.4663    6.8998 C.ar      1 <0>        -0.1187
     33 C28         3.5173   10.1372    6.7780 C.ar      1 <0>        -0.1204
     34 C29         2.3472    9.5431    7.2125 C.ar      1 <0>        -0.1130
     35 O2         -1.2173    2.8265    4.3910 O.3       1 <0>        -0.5355
     36 H2          1.0042    1.8801    0.0026 H         1 <0>         0.0615
     37 H3         -0.5455    1.8639   -0.8728 H         1 <0>         0.0599
     38 H4         -0.5286    1.8543    0.9071 H         1 <0>         0.0731
     39 H5         -0.0007   -0.4492   -2.1038 H         1 <0>         0.1706
     40 H6          0.0645   -1.5678    4.4885 H         1 <0>         0.1257
     41 H7          0.0884   -3.8651    3.6117 H         1 <0>         0.1275
     42 H8          0.0665   -4.2789    1.1954 H         1 <0>         0.1210
     43 H9         -0.8476    0.2741    4.8882 H         1 <0>         0.0668
     44 H10         0.9321    0.2980    4.8724 H         1 <0>         0.0701
     45 H11         0.8463    2.7490    4.3269 H         1 <0>         0.1076
     46 H12        -0.6784    1.9071    6.8336 H         1 <0>         0.0818
     47 H13         1.0928    1.9671    6.6671 H         1 <0>         0.0471
     48 H14         2.2195    4.1075    6.6170 H         1 <0>         0.0422
     49 H15         1.3769    4.3740    5.0714 H         1 <0>         0.0826
     50 H16         2.1255    6.5198    6.0923 H         1 <0>         0.0837
     51 H17         0.3514    6.4340    5.9702 H         1 <0>         0.0452
     52 H18        -0.1186    5.6712    9.5215 H         1 <0>         0.0850
     53 H19        -0.9612    5.9376    7.9760 H         1 <0>         0.0440
     54 H20        -0.8672    3.5254    8.5006 H         1 <0>         0.0792
     55 H21         0.9069    3.6112    8.6228 H         1 <0>         0.0426
     56 H22         0.2532    8.1154    7.7742 H         1 <0>         0.0577
     57 H23         2.3319    6.1802   10.1720 H         1 <0>         0.1281
     58 H24         2.1475    6.4358   12.6141 H         1 <0>         0.1208
     59 H25         0.7054    8.1917   13.5628 H         1 <0>         0.1202
     60 H26        -0.5517    9.6926   12.0694 H         1 <0>         0.1214
     61 H27        -0.3607    9.4424    9.6272 H         1 <0>         0.1186
     62 H28         3.6088    6.6233    8.3355 H         1 <0>         0.1280
     63 H29         5.6921    7.6786    7.5548 H         1 <0>         0.1206
     64 H30         5.6336    9.9293    6.5579 H         1 <0>         0.1201
     65 H31         3.4916   11.1245    6.3409 H         1 <0>         0.1213
     66 H32         1.4072   10.0657    7.1140 H         1 <0>         0.1184
     67 H33        -2.0014    2.4277    4.7927 H         1 <0>         0.3723
@<TRIPOS>BOND
     1    1    2 1
     2    1   36 1
     3    1   37 1
     4    1   38 1
     5    2    7 1
     6    2    3 2
     7    3    4 1
     8    3   39 1
     9    4    5 1
    10    4    6 1
    11    6   11 ar
    12    6    7 ar
    13    7    8 ar
    14    8    9 ar
    15    8   12 1
    16    9   10 ar
    17    9   40 1
    18   10   11 ar
    19   10   41 1
    20   11   42 1
    21   12   13 1
    22   13   14 1
    23   13   43 1
    24   13   44 1
    25   14   15 1
    26   14   35 1
    27   14   45 1
    28   15   16 1
    29   15   46 1
    30   15   47 1
    31   16   21 1
    32   16   17 1
    33   17   18 1
    34   17   48 1
    35   17   49 1
    36   18   19 1
    37   18   50 1
    38   18   51 1
    39   19   20 1
    40   19   22 1
    41   20   21 1
    42   20   52 1
    43   20   53 1
    44   21   54 1
    45   21   55 1
    46   22   23 1
    47   22   29 1
    48   22   56 1
    49   23   28 ar
    50   23   24 ar
    51   24   25 ar
    52   24   57 1
    53   25   26 ar
    54   25   58 1
    55   26   27 ar
    56   26   59 1
    57   27   28 ar
    58   27   60 1
    59   28   61 1
    60   29   34 ar
    61   29   30 ar
    62   30   31 ar
    63   30   62 1
    64   31   32 ar
    65   31   63 1
    66   32   33 ar
    67   32   64 1
    68   33   34 ar
    69   33   65 1
    70   34   66 1
    71   35   67 1
@<TRIPOS>MOLECULE
CHEMBL461463
   68    72     0     0     0
SMALL
USER_CHARGES

@<TRIPOS>ATOM
      1 C1         -0.0184    1.5028    0.0103 C.3       1 <0>        -0.0766
      2 C2          0.0021   -0.0041    0.0020 C.2       1 <0>        -0.1529
      3 C3          0.0085   -0.7965   -1.0811 C.2       1 <0>         0.0388
      4 N1          0.0284   -2.1107   -0.6970 N.pl3     1 <0>        -0.5917
      5 H1          0.0366   -2.8683   -1.3027 H         1 <0>         0.4203
      6 C4          0.0354   -2.1964    0.6773 C.ar      1 <0>         0.1338
      7 C5          0.0251   -0.8817    1.1747 C.ar      1 <0>        -0.1308
      8 C6          0.0344   -0.6578    2.5568 C.ar      1 <0>         0.1767
      9 C7          0.0569   -1.7352    3.4215 C.ar      1 <0>        -0.2472
     10 C8          0.0704   -3.0310    2.9258 C.ar      1 <0>        -0.0589
     11 C9          0.0540   -3.2654    1.5684 C.ar      1 <0>        -0.1644
     12 O1          0.0217    0.6104    3.0443 O.3       1 <0>        -0.2956
     13 C10         0.0323    0.7592    4.4655 C.3       1 <0>         0.0249
     14 C11         0.0155    2.2469    4.8226 C.3       1 <0>         0.1160
     15 C12         0.1524    2.4092    6.3378 C.3       1 <0>         0.0235
     16 N2          0.1363    3.8375    6.6807 N.3       1 <0>        -0.5248
     17 C13         1.3262    4.5195    6.1523 C.3       1 <0>         0.0240
     18 C14         1.2419    6.0122    6.4787 C.3       1 <0>        -0.0027
     19 N3          1.1596    6.1915    7.9342 N.4       1 <0>        -0.3836
     20 C15        -0.0466    5.5259    8.4438 C.3       1 <0>        -0.0031
     21 C16         0.0270    4.0292    8.1338 C.3       1 <0>         0.0289
     22 C17         1.0969    7.6252    8.2479 C.3       1 <0>         0.1341
     23 C18         1.0125    7.8094    9.7412 C.ar      1 <0>        -0.1312
     24 C19         1.7694    7.0127   10.5798 C.ar      1 <0>        -0.1217
     25 C20         1.6919    7.1817   11.9496 C.ar      1 <0>        -0.1031
     26 C21         0.8579    8.1477   12.4808 C.ar      1 <0>        -0.0923
     27 C22         0.1016    8.9450   11.6421 C.ar      1 <0>        -0.1033
     28 C23         0.1824    8.7789   10.2722 C.ar      1 <0>        -0.0861
     29 C24         2.3352    8.3080    7.7268 C.ar      1 <0>        -0.1311
     30 C25         3.5646    7.6851    7.8331 C.ar      1 <0>        -0.1222
     31 C26         4.7004    8.3115    7.3551 C.ar      1 <0>        -0.1027
     32 C27         4.6067    9.5606    6.7703 C.ar      1 <0>        -0.0922
     33 C28         3.3771   10.1831    6.6632 C.ar      1 <0>        -0.1029
     34 C29         2.2407    9.5548    7.1373 C.ar      1 <0>        -0.0862
     35 O2         -1.2173    2.8265    4.3910 O.3       1 <0>        -0.5356
     36 H2          1.0042    1.8801    0.0026 H         1 <0>         0.0599
     37 H3         -0.5455    1.8639   -0.8728 H         1 <0>         0.0611
     38 H4         -0.5286    1.8543    0.9071 H         1 <0>         0.0702
     39 H5         -0.0007   -0.4492   -2.1038 H         1 <0>         0.1723
     40 H6          0.0645   -1.5678    4.4885 H         1 <0>         0.1239
     41 H7          0.0884   -3.8651    3.6117 H         1 <0>         0.1290
     42 H8          0.0665   -4.2789    1.1954 H         1 <0>         0.1236
     43 H9         -0.8476    0.2741    4.8882 H         1 <0>         0.0690
     44 H10         0.9321    0.2980    4.8724 H         1 <0>         0.0704
     45 H11         0.8463    2.7490    4.3269 H         1 <0>         0.1082
     46 H12        -0.6784    1.9071    6.8336 H         1 <0>         0.0966
     47 H13         1.0928    1.9671    6.6671 H         1 <0>         0.0597
     48 H14         2.2208    4.0971    6.6100 H         1 <0>         0.0594
     49 H15         1.3723    4.3855    5.0716 H         1 <0>         0.1279
     50 H16         2.1304    6.5176    6.1000 H         1 <0>         0.1369
     51 H17         0.3546    6.4371    6.0095 H         1 <0>         0.1417
     52 H18        -0.1133    5.6707    9.5221 H         1 <0>         0.1367
     53 H19        -0.9273    5.9533    7.9646 H         1 <0>         0.1408
     54 H20        -0.8748    3.5374    8.4987 H         1 <0>         0.1252
     55 H21         0.9002    3.5987    8.6241 H         1 <0>         0.0591
     56 H22         0.2160    8.0619    7.7775 H         1 <0>         0.1492
     57 H23         2.4210    6.2580   10.1649 H         1 <0>         0.1133
     58 H24         2.2827    6.5588   12.6049 H         1 <0>         0.1349
     59 H25         0.7968    8.2793   13.5510 H         1 <0>         0.1360
     60 H26        -0.5502    9.6995   12.0571 H         1 <0>         0.1376
     61 H27        -0.4056    9.4043    9.6168 H         1 <0>         0.1336
     62 H28         3.6379    6.7093    8.2900 H         1 <0>         0.1130
     63 H29         5.6611    7.8251    7.4388 H         1 <0>         0.1349
     64 H30         5.4942   10.0502    6.3975 H         1 <0>         0.1361
     65 H31         3.3039   11.1591    6.2066 H         1 <0>         0.1377
     66 H32         1.2795   10.0396    7.0503 H         1 <0>         0.1336
     67 H33        -2.0014    2.4277    4.7927 H         1 <0>         0.3776
     68 H34         1.9756    5.7877    8.3693 H         1 <0>         0.4128
@<TRIPOS>BOND
     1    1    2 1
     2    1   36 1
     3    1   37 1
     4    1   38 1
     5    2    7 1
     6    2    3 2
     7    3    4 1
     8    3   39 1
     9    4    5 1
    10    4    6 1
    11    6   11 ar
    12    6    7 ar
    13    7    8 ar
    14    8    9 ar
    15    8   12 1
    16    9   10 ar
    17    9   40 1
    18   10   11 ar
    19   10   41 1
    20   11   42 1
    21   12   13 1
    22   13   14 1
    23   13   43 1
    24   13   44 1
    25   14   15 1
    26   14   35 1
    27   14   45 1
    28   15   16 1
    29   15   46 1
    30   15   47 1
    31   16   21 1
    32   16   17 1
    33   17   18 1
    34   17   48 1
    35   17   49 1
    36   18   19 1
    37   18   50 1
    38   18   51 1
    39   19   20 1
    40   19   22 1
    41   19   68 1
    42   20   21 1
    43   20   52 1
    44   20   53 1
    45   21   54 1
    46   21   55 1
    47   22   23 1
    48   22   29 1
    49   22   56 1
    50   23   28 ar
    51   23   24 ar
    52   24   25 ar
    53   24   57 1
    54   25   26 ar
    55   25   58 1
    56   26   27 ar
    57   26   59 1
    58   27   28 ar
    59   27   60 1
    60   28   61 1
    61   29   34 ar
    62   29   30 ar
    63   30   31 ar
    64   30   62 1
    65   31   32 ar
    66   31   63 1
    67   32   33 ar
    68   32   64 1
    69   33   34 ar
    70   33   65 1
    71   34   66 1
    72   35   67 1
@<TRIPOS>MOLECULE
CHEMBL461463
   68    72     0     0     0
SMALL
USER_CHARGES

@<TRIPOS>ATOM
      1 C1         -0.0184    1.5028    0.0103 C.3       1 <0>        -0.0759
      2 C2          0.0021   -0.0041    0.0020 C.2       1 <0>        -0.1565
      3 C3          0.0085   -0.7965   -1.0811 C.2       1 <0>         0.0441
      4 N1          0.0284   -2.1107   -0.6970 N.pl3     1 <0>        -0.5903
      5 H1          0.0366   -2.8683   -1.3027 H         1 <0>         0.4219
      6 C4          0.0354   -2.1964    0.6773 C.ar      1 <0>         0.1339
      7 C5          0.0251   -0.8817    1.1747 C.ar      1 <0>        -0.1276
      8 C6          0.0344   -0.6578    2.5568 C.ar      1 <0>         0.1709
      9 C7          0.0569   -1.7352    3.4215 C.ar      1 <0>        -0.2435
     10 C8          0.0704   -3.0310    2.9258 C.ar      1 <0>        -0.0610
     11 C9          0.0540   -3.2654    1.5684 C.ar      1 <0>        -0.1578
     12 O1          0.0217    0.6104    3.0443 O.3       1 <0>        -0.2948
     13 C10         0.0323    0.7592    4.4655 C.3       1 <0>         0.0293
     14 C11         0.0155    2.2469    4.8226 C.3       1 <0>         0.0865
     15 C12         0.1524    2.4092    6.3378 C.3       1 <0>        -0.0419
     16 N2          0.1363    3.8375    6.6807 N.4       1 <0>        -0.3807
     17 C13         1.3211    4.4913    6.1095 C.3       1 <0>        -0.0064
     18 C14         1.2951    5.9829    6.4505 C.3       1 <0>         0.0259
     19 N3          1.2791    6.1484    7.9108 N.3       1 <0>        -0.5297
     20 C15         0.1114    5.4776    8.4994 C.3       1 <0>         0.0229
     21 C16         0.1472    3.9902    8.1416 C.3       1 <0>        -0.0005
     22 C17         1.3111    7.5700    8.2798 C.3       1 <0>         0.1790
     23 C18         1.2937    7.6997    9.7811 C.ar      1 <0>        -0.0937
     24 C19         2.0344    6.8293   10.5588 C.ar      1 <0>        -0.0970
     25 C20         2.0184    6.9484   11.9359 C.ar      1 <0>        -0.1215
     26 C21         1.2620    7.9381   12.5353 C.ar      1 <0>        -0.1096
     27 C22         0.5220    8.8090   11.7577 C.ar      1 <0>        -0.1150
     28 C23         0.5414    8.6927   10.3803 C.ar      1 <0>        -0.1092
     29 C24         2.5662    8.2021    7.7355 C.ar      1 <0>        -0.0932
     30 C25         3.7608    7.5074    7.7696 C.ar      1 <0>        -0.0954
     31 C26         4.9121    8.0872    7.2704 C.ar      1 <0>        -0.1217
     32 C27         4.8686    9.3616    6.7366 C.ar      1 <0>        -0.1095
     33 C28         3.6738   10.0560    6.7017 C.ar      1 <0>        -0.1151
     34 C29         2.5217    9.4745    7.1970 C.ar      1 <0>        -0.1095
     35 O2         -1.2173    2.8265    4.3910 O.3       1 <0>        -0.5429
     36 H2          1.0042    1.8801    0.0026 H         1 <0>         0.0608
     37 H3         -0.5455    1.8639   -0.8728 H         1 <0>         0.0624
     38 H4         -0.5286    1.8543    0.9071 H         1 <0>         0.0675
     39 H5         -0.0007   -0.4492   -2.1038 H         1 <0>         0.1738
     40 H6          0.0645   -1.5678    4.4885 H         1 <0>         0.1238
     41 H7          0.0884   -3.8651    3.6117 H         1 <0>         0.1308
     42 H8          0.0665   -4.2789    1.1954 H         1 <0>         0.1257
     43 H9         -0.8476    0.2741    4.8882 H         1 <0>         0.0763
     44 H10         0.9321    0.2980    4.8724 H         1 <0>         0.0812
     45 H11         0.8463    2.7490    4.3269 H         1 <0>         0.1340
     46 H12        -0.6784    1.9071    6.8336 H         1 <0>         0.1389
     47 H13         1.0928    1.9671    6.6671 H         1 <0>         0.1455
     48 H14         2.2215    4.0392    6.5255 H         1 <0>         0.1391
     49 H15         1.3186    4.3660    5.0267 H         1 <0>         0.1373
     50 H16         2.1818    6.4654    6.0394 H         1 <0>         0.1280
     51 H17         0.4017    6.4381    6.0231 H         1 <0>         0.0634
     52 H18         0.1345    5.5916    9.5832 H         1 <0>         0.1290
     53 H19        -0.8015    5.9245    8.1058 H         1 <0>         0.0623
     54 H20        -0.7256    3.4935    8.5653 H         1 <0>         0.1358
     55 H21         1.0536    3.5407    8.5471 H         1 <0>         0.1389
     56 H22         0.4397    8.0736    7.8614 H         1 <0>         0.0676
     57 H23         2.6253    6.0561   10.0904 H         1 <0>         0.1273
     58 H24         2.5965    6.2679   12.5435 H         1 <0>         0.1246
     59 H25         1.2490    8.0306   13.6113 H         1 <0>         0.1255
     60 H26        -0.0691    9.5820   12.2260 H         1 <0>         0.1264
     61 H27        -0.0337    9.3755    9.7726 H         1 <0>         0.1208
     62 H28         3.7948    6.5117    8.1867 H         1 <0>         0.1271
     63 H29         5.8455    7.5447    7.2977 H         1 <0>         0.1243
     64 H30         5.7682    9.8149    6.3472 H         1 <0>         0.1253
     65 H31         3.6400   11.0518    6.2850 H         1 <0>         0.1262
     66 H32         1.5875   10.0155    7.1664 H         1 <0>         0.1205
     67 H33        -2.0014    2.4277    4.7927 H         1 <0>         0.3895
     68 H34        -0.6970    4.2642    6.3044 H         1 <0>         0.4259
@<TRIPOS>BOND
     1    1    2 1
     2    1   36 1
     3    1   37 1
     4    1   38 1
     5    2    7 1
     6    2    3 2
     7    3    4 1
     8    3   39 1
     9    4    5 1
    10    4    6 1
    11    6   11 ar
    12    6    7 ar
    13    7    8 ar
    14    8    9 ar
    15    8   12 1
    16    9   10 ar
    17    9   40 1
    18   10   11 ar
    19   10   41 1
    20   11   42 1
    21   12   13 1
    22   13   14 1
    23   13   43 1
    24   13   44 1
    25   14   15 1
    26   14   35 1
    27   14   45 1
    28   15   16 1
    29   15   46 1
    30   15   47 1
    31   16   21 1
    32   16   17 1
    33   16   68 1
    34   17   18 1
    35   17   48 1
    36   17   49 1
    37   18   19 1
    38   18   50 1
    39   18   51 1
    40   19   20 1
    41   19   22 1
    42   20   21 1
    43   20   52 1
    44   20   53 1
    45   21   54 1
    46   21   55 1
    47   22   23 1
    48   22   29 1
    49   22   56 1
    50   23   28 ar
    51   23   24 ar
    52   24   25 ar
    53   24   57 1
    54   25   26 ar
    55   25   58 1
    56   26   27 ar
    57   26   59 1
    58   27   28 ar
    59   27   60 1
    60   28   61 1
    61   29   34 ar
    62   29   30 ar
    63   30   31 ar
    64   30   62 1
    65   31   32 ar
    66   31   63 1
    67   32   33 ar
    68   32   64 1
    69   33   34 ar
    70   33   65 1
    71   34   66 1
    72   35   67 1
@<TRIPOS>MOLECULE
CHEMBL461463
   67    71     0     0     0
SMALL
USER_CHARGES

@<TRIPOS>ATOM
      1 C1         -5.7137   -0.6275    6.7423 C.3       1 <0>        -0.0776
      2 C2         -5.2257   -2.0307    6.4895 C.2       1 <0>        -0.1464
      3 C3         -5.9743   -3.1443    6.4667 C.2       1 <0>         0.0314
      4 N1         -5.1841   -4.2318    6.2057 N.pl3     1 <0>        -0.5937
      5 H1         -5.4994   -5.1468    6.1396 H         1 <0>         0.4179
      6 C4         -3.8754   -3.8328    6.0506 C.ar      1 <0>         0.1340
      7 C5         -3.8452   -2.4372    6.2156 C.ar      1 <0>        -0.1338
      8 C6         -2.6320   -1.7470    6.1056 C.ar      1 <0>         0.1833
      9 C7         -1.4724   -2.4465    5.8315 C.ar      1 <0>        -0.2504
     10 C8         -1.5078   -3.8236    5.6661 C.ar      1 <0>        -0.0560
     11 C9         -2.6935   -4.5158    5.7791 C.ar      1 <0>        -0.1719
     12 O1         -2.5953   -0.3983    6.2667 O.3       1 <0>        -0.2945
     13 C10        -1.3210    0.2358    6.1399 C.3       1 <0>         0.0262
     14 C11        -1.4778    1.7429    6.3519 C.3       1 <0>         0.1194
     15 C12        -0.0990    2.4058    6.3401 C.3       1 <0>         0.0265
     16 N2         -0.2487    3.8511    6.5561 N.3       1 <0>        -0.5266
     17 C13         0.9445    4.5781    6.1006 C.3       1 <0>         0.0609
     18 C14         0.7174    6.0822    6.2690 C.3       1 <0>         0.0576
     19 N3          0.4314    6.3770    7.6800 N.3       1 <0>        -0.5283
     20 C15        -0.7618    5.6500    8.1355 C.3       1 <0>         0.0569
     21 C16        -0.5347    4.1458    7.9672 C.3       1 <0>         0.0582
     22 C17         0.2817    7.8222    7.8961 C.3       1 <0>         0.1681
     23 C18        -0.0101    8.0851    9.3510 C.ar      1 <0>        -0.0766
     24 C19         0.6509    7.3662   10.3293 C.ar      1 <0>        -0.0908
     25 C20         0.3832    7.6072   11.6639 C.ar      1 <0>        -0.1242
     26 C21        -0.5451    8.5676   12.0202 C.ar      1 <0>        -0.1185
     27 C22        -1.2054    9.2871   11.0419 C.ar      1 <0>        -0.1202
     28 C23        -0.9346    9.0490    9.7074 C.ar      1 <0>        -0.1127
     29 C24         1.5570    8.5234    7.5049 C.ar      1 <0>        -0.0758
     30 C25         2.7797    7.9560    7.8115 C.ar      1 <0>        -0.0897
     31 C26         3.9495    8.5992    7.4526 C.ar      1 <0>        -0.1245
     32 C27         3.8966    9.8095    6.7868 C.ar      1 <0>        -0.1189
     33 C28         2.6739   10.3764    6.4794 C.ar      1 <0>        -0.1205
     34 C29         1.5041    9.7311    6.8344 C.ar      1 <0>        -0.1131
     35 O2         -2.2788    2.2907    5.3029 O.3       1 <0>        -0.5350
     36 H2         -5.9943   -0.1644    5.7963 H         1 <0>         0.0635
     37 H3         -6.5799   -0.6576    7.4032 H         1 <0>         0.0595
     38 H4         -4.9197   -0.0455    7.2103 H         1 <0>         0.0699
     39 H5         -7.0414   -3.1778    6.6299 H         1 <0>         0.1706
     40 H6         -0.5341   -1.9188    5.7452 H         1 <0>         0.1257
     41 H7         -0.5949   -4.3594    5.4518 H         1 <0>         0.1274
     42 H8         -2.7077   -5.5875    5.6463 H         1 <0>         0.1209
     43 H9         -0.6385   -0.1673    6.8881 H         1 <0>         0.0699
     44 H10        -0.9197    0.0488    5.1438 H         1 <0>         0.0663
     45 H11        -1.9610    1.9264    7.3116 H         1 <0>         0.1064
     46 H12         0.5151    1.9814    7.1343 H         1 <0>         0.0494
     47 H13         0.3804    2.2302    5.3770 H         1 <0>         0.0803
     48 H14         1.8057    4.2717    6.6943 H         1 <0>         0.0425
     49 H15         1.1282    4.3534    5.0500 H         1 <0>         0.0793
     50 H16         1.6121    6.6221    5.9588 H         1 <0>         0.0838
     51 H17        -0.1271    6.3936    5.6540 H         1 <0>         0.0445
     52 H18        -0.9455    5.8747    9.1861 H         1 <0>         0.0849
     53 H19        -1.6230    5.9564    7.5418 H         1 <0>         0.0451
     54 H20        -1.4294    3.6060    8.2773 H         1 <0>         0.0804
     55 H21         0.3098    3.8345    8.5821 H         1 <0>         0.0428
     56 H22        -0.5408    8.1974    7.2870 H         1 <0>         0.0577
     57 H23         1.3761    6.6159   10.0510 H         1 <0>         0.1280
     58 H24         0.8991    7.0451   12.4283 H         1 <0>         0.1208
     59 H25        -0.7547    8.7554   13.0628 H         1 <0>         0.1203
     60 H26        -1.9309   10.0372   11.3202 H         1 <0>         0.1215
     61 H27        -1.4478    9.6138    8.9431 H         1 <0>         0.1186
     62 H28         2.8210    7.0105    8.3317 H         1 <0>         0.1281
     63 H29         4.9048    8.1563    7.6928 H         1 <0>         0.1205
     64 H30         4.8106   10.3123    6.5070 H         1 <0>         0.1201
     65 H31         2.6326   11.3221    5.9595 H         1 <0>         0.1212
     66 H32         0.5488   10.1722    6.5910 H         1 <0>         0.1184
     67 H33        -1.9088    2.1639    4.4185 H         1 <0>         0.3709
@<TRIPOS>BOND
     1    1    2 1
     2    1   36 1
     3    1   37 1
     4    1   38 1
     5    2    7 1
     6    2    3 2
     7    3    4 1
     8    3   39 1
     9    4    5 1
    10    4    6 1
    11    6   11 ar
    12    6    7 ar
    13    7    8 ar
    14    8    9 ar
    15    8   12 1
    16    9   10 ar
    17    9   40 1
    18   10   11 ar
    19   10   41 1
    20   11   42 1
    21   12   13 1
    22   13   14 1
    23   13   43 1
    24   13   44 1
    25   14   15 1
    26   14   35 1
    27   14   45 1
    28   15   16 1
    29   15   46 1
    30   15   47 1
    31   16   21 1
    32   16   17 1
    33   17   18 1
    34   17   48 1
    35   17   49 1
    36   18   19 1
    37   18   50 1
    38   18   51 1
    39   19   20 1
    40   19   22 1
    41   20   21 1
    42   20   52 1
    43   20   53 1
    44   21   54 1
    45   21   55 1
    46   22   23 1
    47   22   29 1
    48   22   56 1
    49   23   28 ar
    50   23   24 ar
    51   24   25 ar
    52   24   57 1
    53   25   26 ar
    54   25   58 1
    55   26   27 ar
    56   26   59 1
    57   27   28 ar
    58   27   60 1
    59   28   61 1
    60   29   34 ar
    61   29   30 ar
    62   30   31 ar
    63   30   62 1
    64   31   32 ar
    65   31   63 1
    66   32   33 ar
    67   32   64 1
    68   33   34 ar
    69   33   65 1
    70   34   66 1
    71   35   67 1
@<TRIPOS>MOLECULE
CHEMBL461463
   68    72     0     0     0
SMALL
USER_CHARGES

@<TRIPOS>ATOM
      1 C1         -5.7142   -0.6269    6.7398 C.3       1 <0>        -0.0750
      2 C2         -5.2261   -2.0303    6.4879 C.2       1 <0>        -0.1528
      3 C3         -5.9748   -3.1439    6.4651 C.2       1 <0>         0.0386
      4 N1         -5.1845   -4.2315    6.2052 N.pl3     1 <0>        -0.5917
      5 H1         -5.4997   -5.1465    6.1393 H         1 <0>         0.4202
      6 C4         -3.8756   -3.8327    6.0508 C.ar      1 <0>         0.1339
      7 C5         -3.8455   -2.4370    6.2152 C.ar      1 <0>        -0.1309
      8 C6         -2.6321   -1.7469    6.1057 C.ar      1 <0>         0.1769
      9 C7         -1.4724   -2.4466    5.8327 C.ar      1 <0>        -0.2474
     10 C8         -1.5077   -3.8238    5.6678 C.ar      1 <0>        -0.0589
     11 C9         -2.6936   -4.5159    5.7804 C.ar      1 <0>        -0.1646
     12 O1         -2.5954   -0.3982    6.2663 O.3       1 <0>        -0.2952
     13 C10        -1.3210    0.2358    6.1400 C.3       1 <0>         0.0246
     14 C11        -1.4779    1.7430    6.3513 C.3       1 <0>         0.1188
     15 C12        -0.0990    2.4058    6.3401 C.3       1 <0>         0.0233
     16 N2         -0.2487    3.8511    6.5561 N.3       1 <0>        -0.5253
     17 C13         0.9456    4.5779    6.1028 C.3       1 <0>         0.0295
     18 C14         0.7260    6.0808    6.2896 C.3       1 <0>        -0.0035
     19 N3          0.4672    6.3655    7.7072 N.4       1 <0>        -0.3835
     20 C15        -0.7421    5.6523    8.1388 C.3       1 <0>        -0.0030
     21 C16        -0.5347    4.1459    7.9673 C.3       1 <0>         0.0257
     22 C17         0.2744    7.8104    7.8889 C.3       1 <0>         0.1342
     23 C18         0.0089    8.1027    9.3432 C.ar      1 <0>        -0.1316
     24 C19         0.7169    7.4327   10.3234 C.ar      1 <0>        -0.1217
     25 C20         0.4734    7.7009   11.6574 C.ar      1 <0>        -0.1030
     26 C21        -0.4778    8.6394   12.0113 C.ar      1 <0>        -0.0921
     27 C22        -1.1852    9.3101   11.0311 C.ar      1 <0>        -0.1032
     28 C23        -0.9386    9.0450    9.6970 C.ar      1 <0>        -0.0859
     29 C24         1.5157    8.5422    7.4478 C.ar      1 <0>        -0.1308
     30 C25         2.7638    8.0239    7.7387 C.ar      1 <0>        -0.1223
     31 C26         3.9024    8.6953    7.3342 C.ar      1 <0>        -0.1028
     32 C27         3.7930    9.8847    6.6383 C.ar      1 <0>        -0.0925
     33 C28         2.5449   10.4025    6.3466 C.ar      1 <0>        -0.1030
     34 C29         1.4063    9.7290    6.7474 C.ar      1 <0>        -0.0863
     35 O2         -2.2781    2.2903    5.3014 O.3       1 <0>        -0.5349
     36 H2         -5.9941   -0.1643    5.7934 H         1 <0>         0.0629
     37 H3         -6.5809   -0.6567    7.4001 H         1 <0>         0.0604
     38 H4         -4.9205   -0.0448    7.2081 H         1 <0>         0.0665
     39 H5         -7.0420   -3.1773    6.6276 H         1 <0>         0.1723
     40 H6         -0.5340   -1.9190    5.7468 H         1 <0>         0.1238
     41 H7         -0.5947   -4.3598    5.4544 H         1 <0>         0.1289
     42 H8         -2.7077   -5.5876    5.6481 H         1 <0>         0.1235
     43 H9         -0.6390   -0.1670    6.8889 H         1 <0>         0.0701
     44 H10        -0.9190    0.0484    5.1443 H         1 <0>         0.0683
     45 H11        -1.9617    1.9270    7.3105 H         1 <0>         0.1079
     46 H12         0.5147    1.9813    7.1346 H         1 <0>         0.0619
     47 H13         0.3808    2.2302    5.3772 H         1 <0>         0.0945
     48 H14         1.8085    4.2609    6.6885 H         1 <0>         0.0589
     49 H15         1.1229    4.3646    5.0487 H         1 <0>         0.1252
     50 H16         1.6162    6.6209    5.9672 H         1 <0>         0.1367
     51 H17        -0.1286    6.4000    5.6931 H         1 <0>         0.1411
     52 H18        -0.9404    5.8747    9.1873 H         1 <0>         0.1369
     53 H19        -1.5892    5.9737    7.5328 H         1 <0>         0.1417
     54 H20        -1.4374    3.6173    8.2735 H         1 <0>         0.1261
     55 H21         0.3038    3.8217    8.5838 H         1 <0>         0.0598
     56 H22        -0.5745    8.1417    7.2908 H         1 <0>         0.1493
     57 H23         1.4600    6.6994   10.0469 H         1 <0>         0.1132
     58 H24         1.0260    7.1769   12.4232 H         1 <0>         0.1349
     59 H25        -0.6686    8.8485   13.0536 H         1 <0>         0.1361
     60 H26        -1.9286   10.0432   11.3076 H         1 <0>         0.1377
     61 H27        -1.4886    9.5717    8.9312 H         1 <0>         0.1336
     62 H28         2.8492    7.0947    8.2824 H         1 <0>         0.1131
     63 H29         4.8775    8.2907    7.5621 H         1 <0>         0.1349
     64 H30         4.6826   10.4095    6.3228 H         1 <0>         0.1360
     65 H31         2.4595   11.3319    5.8032 H         1 <0>         0.1376
     66 H32         0.4312   10.1317    6.5163 H         1 <0>         0.1337
     67 H33        -1.9075    2.1632    4.4173 H         1 <0>         0.3759
     68 H34         1.2535    6.0593    8.2605 H         1 <0>         0.4127
@<TRIPOS>BOND
     1    1    2 1
     2    1   36 1
     3    1   37 1
     4    1   38 1
     5    2    7 1
     6    2    3 2
     7    3    4 1
     8    3   39 1
     9    4    5 1
    10    4    6 1
    11    6   11 ar
    12    6    7 ar
    13    7    8 ar
    14    8    9 ar
    15    8   12 1
    16    9   10 ar
    17    9   40 1
    18   10   11 ar
    19   10   41 1
    20   11   42 1
    21   12   13 1
    22   13   14 1
    23   13   43 1
    24   13   44 1
    25   14   15 1
    26   14   35 1
    27   14   45 1
    28   15   16 1
    29   15   46 1
    30   15   47 1
    31   16   21 1
    32   16   17 1
    33   17   18 1
    34   17   48 1
    35   17   49 1
    36   18   19 1
    37   18   50 1
    38   18   51 1
    39   19   20 1
    40   19   22 1
    41   19   68 1
    42   20   21 1
    43   20   52 1
    44   20   53 1
    45   21   54 1
    46   21   55 1
    47   22   23 1
    48   22   29 1
    49   22   56 1
    50   23   28 ar
    51   23   24 ar
    52   24   25 ar
    53   24   57 1
    54   25   26 ar
    55   25   58 1
    56   26   27 ar
    57   26   59 1
    58   27   28 ar
    59   27   60 1
    60   28   61 1
    61   29   34 ar
    62   29   30 ar
    63   30   31 ar
    64   30   62 1
    65   31   32 ar
    66   31   63 1
    67   32   33 ar
    68   32   64 1
    69   33   34 ar
    70   33   65 1
    71   34   66 1
    72   35   67 1
@<TRIPOS>MOLECULE
CHEMBL461463
   68    72     0     0     0
SMALL
USER_CHARGES

@<TRIPOS>ATOM
      1 C1         -5.2632   -0.8795    8.1909 C.3       1 <0>        -0.0743
      2 C2         -4.7742   -2.2658    7.8590 C.2       1 <0>        -0.1565
      3 C3         -5.4417   -3.4145    8.0488 C.2       1 <0>         0.0441
      4 N1         -4.6799   -4.4713    7.6267 N.pl3     1 <0>        -0.5903
      5 H1         -4.9498   -5.4023    7.6626 H         1 <0>         0.4219
      6 C4         -3.4740   -4.0152    7.1433 C.ar      1 <0>         0.1340
      7 C5         -3.4827   -2.6146    7.2621 C.ar      1 <0>        -0.1276
      8 C6         -2.3744   -1.8709    6.8389 C.ar      1 <0>         0.1709
      9 C7         -1.2803   -2.5230    6.3035 C.ar      1 <0>        -0.2435
     10 C8         -1.2777   -3.9054    6.1851 C.ar      1 <0>        -0.0610
     11 C9         -2.3585   -4.6496    6.6044 C.ar      1 <0>        -0.1578
     12 O1         -2.3751   -0.5170    6.9536 O.3       1 <0>        -0.2948
     13 C10        -1.2087    0.1731    6.5004 C.3       1 <0>         0.0293
     14 C11        -1.3932    1.6776    6.7084 C.3       1 <0>         0.0866
     15 C12        -0.0990    2.4058    6.3401 C.3       1 <0>        -0.0419
     16 N2         -0.2692    3.8483    6.5598 N.4       1 <0>        -0.3809
     17 C13         0.9182    4.5612    6.0707 C.3       1 <0>        -0.0004
     18 C14         0.7334    6.0655    6.2822 C.3       1 <0>         0.0241
     19 N3          0.5336    6.3352    7.7131 N.3       1 <0>        -0.5297
     20 C15        -0.6376    5.6081    8.2228 C.3       1 <0>         0.0245
     21 C16        -0.4414    4.1076    7.9953 C.3       1 <0>        -0.0063
     22 C17         0.4085    7.7771    7.9645 C.3       1 <0>         0.1791
     23 C18         0.2053    8.0141    9.4388 C.ar      1 <0>        -0.0941
     24 C19         0.9172    7.2722   10.3627 C.ar      1 <0>        -0.0969
     25 C20         0.7308    7.4896   11.7151 C.ar      1 <0>        -0.1215
     26 C21        -0.1671    8.4493   12.1436 C.ar      1 <0>        -0.1093
     27 C22        -0.8783    9.1919   11.2197 C.ar      1 <0>        -0.1149
     28 C23        -0.6888    8.9775    9.8673 C.ar      1 <0>        -0.1091
     29 C24         1.6640    8.4768    7.5116 C.ar      1 <0>        -0.0928
     30 C25         2.8981    7.8953    7.7346 C.ar      1 <0>        -0.0955
     31 C26         4.0498    8.5371    7.3192 C.ar      1 <0>        -0.1218
     32 C27         3.9673    9.7602    6.6803 C.ar      1 <0>        -0.1098
     33 C28         2.7332   10.3413    6.4565 C.ar      1 <0>        -0.1152
     34 C29         1.5812    9.6975    6.8681 C.ar      1 <0>        -0.1097
     35 O2         -2.4567    2.1465    5.8772 O.3       1 <0>        -0.5425
     36 H2         -5.7932   -0.4660    7.3328 H         1 <0>         0.0624
     37 H3         -5.9375   -0.9271    9.0460 H         1 <0>         0.0621
     38 H4         -4.4126   -0.2426    8.4339 H         1 <0>         0.0645
     39 H5         -6.4323   -3.4937    8.4715 H         1 <0>         0.1738
     40 H6         -0.4231   -1.9539    5.9753 H         1 <0>         0.1238
     41 H7         -0.4168   -4.4038    5.7647 H         1 <0>         0.1308
     42 H8         -2.3446   -5.7250    6.5051 H         1 <0>         0.1257
     43 H9         -0.3418   -0.1683    7.0661 H         1 <0>         0.0811
     44 H10        -1.0545   -0.0310    5.4408 H         1 <0>         0.0764
     45 H11        -1.6353    1.8730    7.7531 H         1 <0>         0.1335
     46 H12         0.7155    2.0370    6.9634 H         1 <0>         0.1454
     47 H13         0.1348    2.2232    5.2912 H         1 <0>         0.1390
     48 H14         1.7970    4.2225    6.6193 H         1 <0>         0.1390
     49 H15         1.0524    4.3575    5.0083 H         1 <0>         0.1359
     50 H16         1.6206    6.5936    5.9329 H         1 <0>         0.1281
     51 H17        -0.1375    6.4071    5.7226 H         1 <0>         0.0624
     52 H18        -0.7505    5.8025    9.2893 H         1 <0>         0.1290
     53 H19        -1.5310    5.9422    7.6952 H         1 <0>         0.0633
     54 H20        -1.3153    3.5676    8.3597 H         1 <0>         0.1369
     55 H21         0.4443    3.7712    8.5341 H         1 <0>         0.1391
     56 H22        -0.4455    8.1695    7.4124 H         1 <0>         0.0675
     57 H23         1.6187    6.5223   10.0280 H         1 <0>         0.1272
     58 H24         1.2864    6.9094   12.4369 H         1 <0>         0.1246
     59 H25        -0.3133    8.6187   13.2001 H         1 <0>         0.1256
     60 H26        -1.5801    9.9415   11.5544 H         1 <0>         0.1264
     61 H27        -1.2417    9.5602    9.1454 H         1 <0>         0.1208
     62 H28         2.9625    6.9397    8.2337 H         1 <0>         0.1272
     63 H29         5.0140    8.0832    7.4940 H         1 <0>         0.1243
     64 H30         4.8672   10.2620    6.3563 H         1 <0>         0.1253
     65 H31         2.6688   11.2970    5.9577 H         1 <0>         0.1262
     66 H32         0.6168   10.1497    6.6900 H         1 <0>         0.1206
     67 H33        -2.3089    2.0052    4.9320 H         1 <0>         0.3895
     68 H34        -1.0842    4.1706    6.0598 H         1 <0>         0.4260
@<TRIPOS>BOND
     1    1    2 1
     2    1   36 1
     3    1   37 1
     4    1   38 1
     5    2    7 1
     6    2    3 2
     7    3    4 1
     8    3   39 1
     9    4    5 1
    10    4    6 1
    11    6   11 ar
    12    6    7 ar
    13    7    8 ar
    14    8    9 ar
    15    8   12 1
    16    9   10 ar
    17    9   40 1
    18   10   11 ar
    19   10   41 1
    20   11   42 1
    21   12   13 1
    22   13   14 1
    23   13   43 1
    24   13   44 1
    25   14   15 1
    26   14   35 1
    27   14   45 1
    28   15   16 1
    29   15   46 1
    30   15   47 1
    31   16   21 1
    32   16   17 1
    33   16   68 1
    34   17   18 1
    35   17   48 1
    36   17   49 1
    37   18   19 1
    38   18   50 1
    39   18   51 1
    40   19   20 1
    41   19   22 1
    42   20   21 1
    43   20   52 1
    44   20   53 1
    45   21   54 1
    46   21   55 1
    47   22   23 1
    48   22   29 1
    49   22   56 1
    50   23   28 ar
    51   23   24 ar
    52   24   25 ar
    53   24   57 1
    54   25   26 ar
    55   25   58 1
    56   26   27 ar
    57   26   59 1
    58   27   28 ar
    59   27   60 1
    60   28   61 1
    61   29   34 ar
    62   29   30 ar
    63   30   31 ar
    64   30   62 1
    65   31   32 ar
    66   31   63 1
    67   32   33 ar
    68   32   64 1
    69   33   34 ar
    70   33   65 1
    71   34   66 1
    72   35   67 1
@<TRIPOS>MOLECULE
CHEMBL229401
   49    51     0     0     0
SMALL
USER_CHARGES

@<TRIPOS>ATOM
      1 C1         -0.0187    1.5258    0.0104 C.3       1 <0>        -0.1845
      2 C2          0.0021   -0.0041    0.0020 C.3       1 <0>         0.0286
      3 H1          0.5123   -0.3556   -0.8948 H         1 <0>         0.1415
      4 C3         -1.4333   -0.5336    0.0129 C.3       1 <0>        -0.0980
      5 C4         -1.4159   -2.0348   -0.1192 C.ar      1 <0>        -0.1320
      6 C5         -1.5514   -2.6155   -1.3429 C.ar      1 <0>        -0.0764
      7 C6         -1.5378   -4.0016   -1.4846 C.ar      1 <0>        -0.1185
      8 C7         -1.3891   -4.8152   -0.4034 C.ar      1 <0>        -0.0818
      9 C8         -1.2464   -4.2522    0.8759 C.ar      1 <0>        -0.0535
     10 C9         -1.2540   -2.8420    1.0193 C.ar      1 <0>        -0.0530
     11 C10        -1.1054   -2.2788    2.2984 C.ar      1 <0>        -0.1790
     12 C11        -0.9507   -3.0922    3.3784 C.ar      1 <0>        -0.0737
     13 C12        -0.9367   -4.4787    3.2366 C.ar      1 <0>        -0.1220
     14 C13        -1.0912   -5.0598    2.0156 C.ar      1 <0>        -0.0777
     15 N1          0.7126   -0.4907    1.1921 N.4       1 <0>        -0.5079
     16 C14         2.1220   -0.0825    1.1220 C.3       1 <0>        -0.0503
     17 C15         2.8620   -0.5894    2.3615 C.3       1 <0>         0.1376
     18 H2          2.8002   -1.6769    2.4022 H         1 <0>         0.1331
     19 C16         4.3078   -0.1706    2.2896 C.ar      1 <0>        -0.1046
     20 C17         4.6876    1.0783    2.7426 C.ar      1 <0>        -0.1461
     21 C18         6.0184    1.4662    2.6774 C.ar      1 <0>         0.1386
     22 C19         6.9672    0.5995    2.1574 C.ar      1 <0>        -0.1581
     23 C20         6.5837   -0.6531    1.7036 C.ar      1 <0>         0.1381
     24 C21         5.2525   -1.0385    1.7761 C.ar      1 <0>        -0.1414
     25 O1          7.5114   -1.5047    1.1928 O.3       1 <0>        -0.4931
     26 O2          6.3912    2.6949    3.1227 O.3       1 <0>        -0.4935
     27 O3          2.2630   -0.0341    3.5341 O.3       1 <0>        -0.5448
     28 H3          1.0039    1.9031    0.0027 H         1 <0>         0.0832
     29 H4         -0.5459    1.8868   -0.8726 H         1 <0>         0.1097
     30 H5         -0.5289    1.8773    0.9072 H         1 <0>         0.0839
     31 H6         -1.9156   -0.2570    0.9504 H         1 <0>         0.0990
     32 H7         -1.9862   -0.1019   -0.8214 H         1 <0>         0.1235
     33 H8         -1.6717   -1.9926   -2.2169 H         1 <0>         0.1321
     34 H9         -1.6473   -4.4369   -2.4669 H         1 <0>         0.1345
     35 H10        -1.3811   -5.8879   -0.5284 H         1 <0>         0.1373
     36 H11        -1.1136   -1.2061    2.4235 H         1 <0>         0.1158
     37 H12        -0.8368   -2.6568    4.3602 H         1 <0>         0.1338
     38 H13        -0.8121   -5.1015    4.1101 H         1 <0>         0.1345
     39 H14        -1.0791   -6.1356    1.9211 H         1 <0>         0.1378
     40 H15         0.2896   -0.0986    2.0201 H         1 <0>         0.4254
     41 H16         2.5788   -0.5061    0.2276 H         1 <0>         0.1451
     42 H17         2.1837    1.0050    1.0814 H         1 <0>         0.1407
     43 H18         3.9480    1.7533    3.1473 H         1 <0>         0.1327
     44 H19         8.0033    0.8997    2.1055 H         1 <0>         0.1447
     45 H20         4.9539   -2.0158    1.4267 H         1 <0>         0.1371
     46 H21         7.9170   -2.0853    1.8512 H         1 <0>         0.4023
     47 H22         6.6358    2.7168    4.0580 H         1 <0>         0.4023
     48 H23         2.2821    0.9322    3.5656 H         1 <0>         0.3882
     49 H24         0.6554   -1.4974    1.2298 H         1 <0>         0.4288
@<TRIPOS>BOND
     1    1    2 1
     2    1   28 1
     3    1   29 1
     4    1   30 1
     5    2    3 1
     6    2    4 1
     7    2   15 1
     8    4    5 1
     9    4   31 1
    10    4   32 1
    11    5   10 ar
    12    5    6 ar
    13    6    7 ar
    14    6   33 1
    15    7    8 ar
    16    7   34 1
    17    8    9 ar
    18    8   35 1
    19    9   14 ar
    20    9   10 ar
    21   10   11 ar
    22   11   12 ar
    23   11   36 1
    24   12   13 ar
    25   12   37 1
    26   13   14 ar
    27   13   38 1
    28   14   39 1
    29   15   16 1
    30   15   40 1
    31   15   49 1
    32   16   17 1
    33   16   41 1
    34   16   42 1
    35   17   18 1
    36   17   19 1
    37   17   27 1
    38   19   24 ar
    39   19   20 ar
    40   20   21 ar
    41   20   43 1
    42   21   22 ar
    43   21   26 1
    44   22   23 ar
    45   22   44 1
    46   23   24 ar
    47   23   25 1
    48   24   45 1
    49   25   46 1
    50   26   47 1
    51   27   48 1
@<TRIPOS>MOLECULE
CHEMBL1221732
   55    58     0     0     0
SMALL
USER_CHARGES

@<TRIPOS>ATOM
      1 C1         -0.0167    1.3781    0.0096 C.ar      1 <0>        -0.1049
      2 C2          1.1709    2.0855    0.0021 C.ar      1 <0>        -0.1199
      3 C3          2.3773    1.4107   -0.0130 C.ar      1 <0>        -0.1005
      4 C4          2.3960    0.0285   -0.0201 C.ar      1 <0>        -0.1055
      5 C5          1.2084   -0.6789   -0.0117 C.ar      1 <0>        -0.0953
      6 C6          0.0021   -0.0041    0.0020 C.ar      1 <0>        -0.1203
      7 C7          3.7112   -0.7071   -0.0376 C.3       1 <0>         0.1055
      8 O1          4.1410   -0.9464    1.3041 O.3       1 <0>        -0.3815
      9 C8          5.3853   -1.6423    1.4004 C.3       1 <0>         0.0715
     10 H1          6.0046   -1.4007    0.5366 H         1 <0>         0.0840
     11 C9          5.1252   -3.1496    1.4359 C.3       1 <0>        -0.1375
     12 C10         6.4575   -3.8948    1.5390 C.3       1 <0>        -0.1267
     13 C11         7.1807   -3.4718    2.8193 C.3       1 <0>        -0.1192
     14 C12         7.4408   -1.9645    2.7838 C.3       1 <0>        -0.1401
     15 C13         6.1085   -1.2193    2.6806 C.3       1 <0>         0.0312
     16 H2          5.4893   -1.4609    3.5445 H         1 <0>         0.1459
     17 N1          6.3582    0.2279    2.6466 N.4       1 <0>        -0.5020
     18 C14         6.9439    0.6540    3.9247 C.3       1 <0>        -0.0478
     19 C15         7.2040    2.1613    3.8892 C.3       1 <0>         0.1635
     20 H3          6.2639    2.6885    3.7266 H         1 <0>         0.1153
     21 C16         7.8048    2.5984    5.2003 C.ar      1 <0>        -0.2328
     22 C17         9.1784    2.7050    5.3343 C.ar      1 <0>        -0.0379
     23 C18         9.7083    3.1087    6.5474 C.ar      1 <0>        -0.2401
     24 C19         8.8934    3.4050    7.6198 C.ar      1 <0>         0.3003
     25 C20         7.4925    3.3047    7.5103 C.ar      1 <0>        -0.0289
     26 C21         6.9909    2.8983    6.2667 C.ar      1 <0>        -0.0475
     27 S1          5.2323    2.9023    6.5184 S.3       1 <0>        -0.1168
     28 C22         5.2298    3.4374    8.2217 C.2       1 <0>         0.5372
     29 O2          4.2805    3.6287    8.9591 O.2       1 <0>        -0.4761
     30 N2          6.5446    3.5648    8.4885 N.am      1 <0>        -0.6200
     31 H4          6.8302    3.8529    9.3696 H         1 <0>         0.4151
     32 O3          9.4488    3.7982    8.7970 O.3       1 <0>        -0.6870
     33 O4          8.1096    2.4635    2.8259 O.3       1 <0>        -0.5545
     34 H5         -0.9591    1.9053    0.0259 H         1 <0>         0.1268
     35 H6          1.1563    3.1654    0.0076 H         1 <0>         0.1276
     36 H7          3.3051    1.9634   -0.0196 H         1 <0>         0.1217
     37 H8          1.2231   -1.7588   -0.0176 H         1 <0>         0.1231
     38 H9         -0.9258   -0.5567    0.0082 H         1 <0>         0.1268
     39 H10         3.5884   -1.6586   -0.5549 H         1 <0>         0.0684
     40 H11         4.4573   -0.1052   -0.5563 H         1 <0>         0.0643
     41 H12         4.5060   -3.3913    2.2997 H         1 <0>         0.0839
     42 H13         4.6100   -3.4510    0.5238 H         1 <0>         0.0831
     43 H14         6.2722   -4.9686    1.5643 H         1 <0>         0.0813
     44 H15         7.0768   -3.6532    0.6752 H         1 <0>         0.0703
     45 H16         6.5614   -3.7134    3.6831 H         1 <0>         0.0773
     46 H17         8.1299   -4.0026    2.8927 H         1 <0>         0.0868
     47 H18         7.9560   -1.6631    3.6958 H         1 <0>         0.0975
     48 H19         8.0601   -1.7228    1.9199 H         1 <0>         0.0887
     49 H20         6.9977    0.4413    1.8958 H         1 <0>         0.4233
     50 H21         6.2531    0.4235    4.7357 H         1 <0>         0.1409
     51 H22         7.8840    0.1268    4.0872 H         1 <0>         0.1370
     52 H23         9.8283    2.4758    4.5028 H         1 <0>         0.1127
     53 H24        10.7795    3.1929    6.6563 H         1 <0>         0.1171
     54 H25         8.9691    2.0274    2.9054 H         1 <0>         0.3827
     55 H26         5.4880    0.7159    2.4961 H         1 <0>         0.4321
@<TRIPOS>BOND
     1    1    6 ar
     2    1    2 ar
     3    1   34 1
     4    2    3 ar
     5    2   35 1
     6    3    4 ar
     7    3   36 1
     8    4    5 ar
     9    4    7 1
    10    5    6 ar
    11    5   37 1
    12    6   38 1
    13    7    8 1
    14    7   39 1
    15    7   40 1
    16    8    9 1
    17    9   10 1
    18    9   15 1
    19    9   11 1
    20   11   12 1
    21   11   41 1
    22   11   42 1
    23   12   13 1
    24   12   43 1
    25   12   44 1
    26   13   14 1
    27   13   45 1
    28   13   46 1
    29   14   15 1
    30   14   47 1
    31   14   48 1
    32   15   16 1
    33   15   17 1
    34   17   18 1
    35   17   49 1
    36   17   55 1
    37   18   19 1
    38   18   50 1
    39   18   51 1
    40   19   20 1
    41   19   21 1
    42   19   33 1
    43   21   26 ar
    44   21   22 ar
    45   22   23 ar
    46   22   52 1
    47   23   24 ar
    48   23   53 1
    49   24   25 ar
    50   24   32 1
    51   25   30 1
    52   25   26 ar
    53   26   27 1
    54   27   28 1
    55   28   29 2
    56   28   30 am
    57   30   31 1
    58   33   54 1
@<TRIPOS>MOLECULE
CHEMBL138276
   49    52     0     0     0
SMALL
USER_CHARGES

@<TRIPOS>ATOM
      1 C1          0.2499    1.3782    0.0253 C.3       1 <0>        -0.1680
      2 C2         -0.0498   -0.1220    0.0440 C.3       1 <0>         0.1108
      3 N1          0.5806   -0.7604   -1.1142 N.am      1 <0>        -0.6119
      4 C3          1.9461   -1.2809   -1.0106 C.3       1 <0>         0.0927
      5 C4          1.8992   -2.7697   -0.6612 C.3       1 <0>        -0.1743
      6 C5         -0.0957   -0.8688   -2.2749 C.2       1 <0>         0.5275
      7 O1         -1.1859   -0.3505   -2.3923 O.2       1 <0>        -0.5332
      8 C6          0.5027   -1.6342   -3.4270 C.3       1 <0>        -0.0724
      9 H1          0.8532   -2.6060   -3.0795 H         1 <0>         0.1187
     10 C7         -0.5524   -1.8272   -4.5222 C.3       1 <0>         0.0800
     11 N2          0.0833   -2.4849   -5.6678 N.3       1 <0>        -0.5490
     12 C8          1.1107   -1.6647   -6.2965 C.3       1 <0>         0.1374
     13 C9          1.9670   -2.5345   -7.2272 C.3       1 <0>        -0.0234
     14 C10         3.0988   -1.7091   -7.7811 C.2       1 <0>        -0.1682
     15 C11         3.8571   -1.7619   -8.8710 C.2       1 <0>         0.0576
     16 N3          4.7781   -0.7258   -8.8671 N.pl3     1 <0>        -0.5950
     17 H2          5.4349   -0.5665   -9.5629 H         1 <0>         0.4164
     18 C12         4.6304    0.0374   -7.7485 C.ar      1 <0>         0.1109
     19 C13         3.5770   -0.5476   -7.0402 C.ar      1 <0>        -0.1304
     20 C14         3.0557   -0.0841   -5.8142 C.ar      1 <0>        -0.0050
     21 C15         3.6704    1.0297   -5.2892 C.ar      1 <0>        -0.1285
     22 C16         4.7281    1.6227   -5.9753 C.ar      1 <0>        -0.0966
     23 C17         5.2286    1.1657   -7.1891 C.ar      1 <0>        -0.1209
     24 C18         1.9198   -0.8750   -5.3020 C.2       1 <0>        -0.0510
     25 C19         1.6541   -0.8580   -4.0076 C.2       1 <0>        -0.1372
     26 C20        -0.9199   -2.9167   -6.6502 C.3       1 <0>         0.0276
     27 H3          1.3279    1.5339    0.0667 H         1 <0>         0.0549
     28 H4         -0.1456    1.8163   -0.8911 H         1 <0>         0.0598
     29 H5         -0.2192    1.8532    0.8870 H         1 <0>         0.0662
     30 H6          0.3457   -0.5602    0.9603 H         1 <0>         0.0769
     31 H7         -1.1279   -0.2778    0.0026 H         1 <0>         0.0825
     32 H8          2.4591   -1.1471   -1.9630 H         1 <0>         0.0870
     33 H9          2.4824   -0.7412   -0.2301 H         1 <0>         0.0824
     34 H10         1.3862   -2.9035    0.2911 H         1 <0>         0.0596
     35 H11         1.3629   -3.3094   -1.4418 H         1 <0>         0.0604
     36 H12         2.9152   -3.1570   -0.5842 H         1 <0>         0.0701
     37 H13        -1.3625   -2.4511   -4.1446 H         1 <0>         0.0872
     38 H14        -0.9448   -0.8573   -4.8279 H         1 <0>         0.0500
     39 H15         0.5964   -0.9449   -6.9333 H         1 <0>         0.0449
     40 H16         2.3718   -3.3772   -6.6668 H         1 <0>         0.0843
     41 H17         1.3516   -2.9046   -8.0472 H         1 <0>         0.0769
     42 H18         3.7687   -2.5060   -9.6488 H         1 <0>         0.1697
     43 H19         3.3342    1.4425   -4.3496 H         1 <0>         0.1220
     44 H20         5.1892    2.4947   -5.5356 H         1 <0>         0.1225
     45 H21         6.0502    1.6659   -7.6803 H         1 <0>         0.1286
     46 H22         2.2782   -0.2715   -3.3496 H         1 <0>         0.1227
     47 H23        -1.4264   -2.0430   -7.0604 H         1 <0>         0.0289
     48 H24        -0.4284   -3.4630   -7.4553 H         1 <0>         0.0740
     49 H25        -1.6493   -3.5645   -6.1639 H         1 <0>         0.0738
@<TRIPOS>BOND
     1    1    2 1
     2    1   27 1
     3    1   28 1
     4    1   29 1
     5    2    3 1
     6    2   30 1
     7    2   31 1
     8    3    4 1
     9    3    6 am
    10    4    5 1
    11    4   32 1
    12    4   33 1
    13    5   34 1
    14    5   35 1
    15    5   36 1
    16    6    7 2
    17    6    8 1
    18    8    9 1
    19    8   25 1
    20    8   10 1
    21   10   11 1
    22   10   37 1
    23   10   38 1
    24   11   12 1
    25   11   26 1
    26   12   24 1
    27   12   13 1
    28   12   39 1
    29   13   14 1
    30   13   40 1
    31   13   41 1
    32   14   19 1
    33   14   15 2
    34   15   16 1
    35   15   42 1
    36   16   17 1
    37   16   18 1
    38   18   23 ar
    39   18   19 ar
    40   19   20 ar
    41   20   21 ar
    42   20   24 1
    43   21   22 ar
    44   21   43 1
    45   22   23 ar
    46   22   44 1
    47   23   45 1
    48   24   25 2
    49   25   46 1
    50   26   47 1
    51   26   48 1
    52   26   49 1
@<TRIPOS>MOLECULE
CHEMBL138276
   50    53     0     0     0
SMALL
USER_CHARGES

@<TRIPOS>ATOM
      1 C1         -1.7905   -1.4126   -2.0494 C.3       1 <0>        -0.1700
      2 C2         -2.3050   -0.2813   -1.1569 C.3       1 <0>         0.1067
      3 N1         -1.5134   -0.2326    0.0748 N.am      1 <0>        -0.5994
      4 C3         -0.2448    0.4997    0.1016 C.3       1 <0>         0.0911
      5 C4         -0.5165    1.9809    0.3721 C.3       1 <0>        -0.1749
      6 C5         -1.9521   -0.8613    1.1832 C.2       1 <0>         0.5297
      7 O1         -2.9640   -1.5286    1.1415 O.2       1 <0>        -0.5231
      8 C6         -1.1854   -0.7353    2.4744 C.3       1 <0>        -0.1017
      9 H1         -0.8212    0.2858    2.5878 H         1 <0>         0.1311
     10 C7         -2.0963   -1.0939    3.6543 C.3       1 <0>         0.0084
     11 N2         -1.3050   -1.0387    4.8857 N.4       1 <0>        -0.3782
     12 C8         -0.2774   -2.0706    4.9158 C.3       1 <0>         0.0700
     13 C9          0.7207   -1.7668    6.0420 C.3       1 <0>        -0.0394
     14 C10         1.8473   -2.7653    5.9968 C.2       1 <0>        -0.2012
     15 C11         2.7113   -3.2507    6.8821 C.2       1 <0>         0.0973
     16 N3          3.5611   -4.1625    6.2752 N.pl3     1 <0>        -0.5868
     17 H2          4.2723   -4.6424    6.7277 H         1 <0>         0.4250
     18 C12         3.2560   -4.2900    4.9537 C.ar      1 <0>         0.1110
     19 C13         2.1762   -3.4285    4.7406 C.ar      1 <0>        -0.1235
     20 C14         1.5073   -3.2396    3.5133 C.ar      1 <0>        -0.0322
     21 C15         1.9967   -3.9655    2.4512 C.ar      1 <0>        -0.0997
     22 C16         3.0785   -4.8227    2.6405 C.ar      1 <0>        -0.0997
     23 C17         3.7245   -5.0119    3.8568 C.ar      1 <0>        -0.0953
     24 C18         0.3763   -2.2939    3.5785 C.2       1 <0>        -0.0542
     25 C19        -0.0226   -1.6920    2.4706 C.2       1 <0>        -0.1351
     26 C20        -2.1987   -1.2197    6.0374 C.3       1 <0>        -0.0510
     27 H3         -2.3795   -1.4488   -2.9659 H         1 <0>         0.0741
     28 H4         -0.7443   -1.2329   -2.2969 H         1 <0>         0.0582
     29 H5         -1.8812   -2.3618   -1.5214 H         1 <0>         0.0593
     30 H6         -2.2144    0.6679   -1.6850 H         1 <0>         0.0839
     31 H7         -3.3513   -0.4610   -0.9095 H         1 <0>         0.0908
     32 H8          0.3906    0.0969    0.8904 H         1 <0>         0.0822
     33 H9          0.2573    0.3921   -0.8598 H         1 <0>         0.0907
     34 H10        -1.0185    2.0885    1.3336 H         1 <0>         0.0541
     35 H11         0.4274    2.5257    0.3921 H         1 <0>         0.0761
     36 H12        -1.1519    2.3837   -0.4166 H         1 <0>         0.0671
     37 H13        -2.9169   -0.3789    3.7140 H         1 <0>         0.1457
     38 H14        -2.4926   -2.1001    3.5184 H         1 <0>         0.1464
     39 H15        -0.7731   -3.0026    5.1875 H         1 <0>         0.1406
     40 H16         1.1208   -0.7613    5.9114 H         1 <0>         0.0937
     41 H17         0.2139   -1.8340    7.0046 H         1 <0>         0.1009
     42 H18         2.7467   -2.9740    7.9255 H         1 <0>         0.1765
     43 H19         1.5437   -3.8714    1.4754 H         1 <0>         0.1281
     44 H20         3.4387   -5.3768    1.7863 H         1 <0>         0.1319
     45 H21         4.5582   -5.6923    3.9486 H         1 <0>         0.1379
     46 H22         0.4952   -1.8912    1.5440 H         1 <0>         0.1470
     47 H23        -2.6958   -2.1869    5.9631 H         1 <0>         0.1267
     48 H24        -1.6172   -1.1799    6.9585 H         1 <0>         0.1295
     49 H25        -2.9464   -0.4266    6.0453 H         1 <0>         0.1313
     50 H26        -0.8639   -0.1336    4.9527 H         1 <0>         0.4225
@<TRIPOS>BOND
     1    1    2 1
     2    1   27 1
     3    1   28 1
     4    1   29 1
     5    2    3 1
     6    2   30 1
     7    2   31 1
     8    3    4 1
     9    3    6 am
    10    4    5 1
    11    4   32 1
    12    4   33 1
    13    5   34 1
    14    5   35 1
    15    5   36 1
    16    6    7 2
    17    6    8 1
    18    8    9 1
    19    8   25 1
    20    8   10 1
    21   10   11 1
    22   10   37 1
    23   10   38 1
    24   11   12 1
    25   11   26 1
    26   11   50 1
    27   12   24 1
    28   12   13 1
    29   12   39 1
    30   13   14 1
    31   13   40 1
    32   13   41 1
    33   14   19 1
    34   14   15 2
    35   15   16 1
    36   15   42 1
    37   16   17 1
    38   16   18 1
    39   18   23 ar
    40   18   19 ar
    41   19   20 ar
    42   20   21 ar
    43   20   24 1
    44   21   22 ar
    45   21   43 1
    46   22   23 ar
    47   22   44 1
    48   23   45 1
    49   24   25 2
    50   25   46 1
    51   26   47 1
    52   26   48 1
    53   26   49 1
@<TRIPOS>MOLECULE
CHEMBL138276
   49    52     0     0     0
SMALL
USER_CHARGES

@<TRIPOS>ATOM
      1 C1          0.2574    1.3883    0.0334 C.3       1 <0>        -0.1681
      2 C2         -0.0436   -0.1116    0.0551 C.3       1 <0>         0.1110
      3 N1          0.5840   -0.7524   -1.1032 N.am      1 <0>        -0.6122
      4 C3          1.9493   -1.2739   -1.0014 C.3       1 <0>         0.0932
      5 C4          1.9018   -2.7624   -0.6506 C.3       1 <0>        -0.1745
      6 C5         -0.0946   -0.8621   -2.2625 C.2       1 <0>         0.5280
      7 O1         -1.1841   -0.3423   -2.3789 O.2       1 <0>        -0.5330
      8 C6          0.5005   -1.6308   -3.4141 C.3       1 <0>        -0.0729
      9 H1          0.8464   -2.6044   -3.0671 H         1 <0>         0.1192
     10 C7         -0.5536   -1.8167   -4.5125 C.3       1 <0>         0.0753
     11 N2          0.0701   -2.5137   -5.6412 N.3       1 <0>        -0.5403
     12 C8          1.1495   -1.7633   -6.2590 C.3       1 <0>         0.1310
     13 C9          0.6413   -0.9795   -7.4750 C.3       1 <0>        -0.0600
     14 C10         1.7819   -0.1800   -8.0526 C.2       1 <0>        -0.1672
     15 C11         2.0685    0.3201   -9.2495 C.2       1 <0>         0.0578
     16 N3          3.2801    0.9931   -9.2122 N.pl3     1 <0>        -0.5949
     17 H2          3.6891    1.4389   -9.9704 H         1 <0>         0.4164
     18 C12         3.8151    0.9400   -7.9605 C.ar      1 <0>         0.1112
     19 C13         2.9011    0.2051   -7.2003 C.ar      1 <0>        -0.1312
     20 C14         3.0437   -0.1157   -5.8331 C.ar      1 <0>        -0.0041
     21 C15         4.1826    0.3585   -5.2252 C.ar      1 <0>        -0.1278
     22 C16         5.1031    1.0986   -5.9645 C.ar      1 <0>        -0.0963
     23 C17         4.9589    1.4049   -7.3127 C.ar      1 <0>        -0.1214
     24 C18         1.9320   -0.9193   -5.2890 C.2       1 <0>        -0.0517
     25 C19         1.6550   -0.8592   -3.9984 C.2       1 <0>        -0.1376
     26 C20        -0.9351   -2.9071   -6.6375 C.3       1 <0>         0.0237
     27 H3          1.3357    1.5432    0.0725 H         1 <0>         0.0548
     28 H4         -0.1395    1.8253   -0.8829 H         1 <0>         0.0597
     29 H5         -0.2095    1.8651    0.8953 H         1 <0>         0.0661
     30 H6          0.3533   -0.5486    0.9715 H         1 <0>         0.0770
     31 H7         -1.1218   -0.2664    0.0161 H         1 <0>         0.0824
     32 H8          2.4609   -1.1414   -1.9547 H         1 <0>         0.0864
     33 H9          2.4873   -0.7340   -0.2222 H         1 <0>         0.0824
     34 H10         1.3902   -2.8949    0.3027 H         1 <0>         0.0596
     35 H11         1.3638   -3.3023   -1.4298 H         1 <0>         0.0604
     36 H12         2.9176   -3.1505   -0.5749 H         1 <0>         0.0702
     37 H13        -1.3826   -2.4108   -4.1280 H         1 <0>         0.0867
     38 H14        -0.9177   -0.8427   -4.8395 H         1 <0>         0.0502
     39 H15         1.8466   -2.5014   -6.6557 H         1 <0>         0.0869
     40 H16         0.2654   -1.6743   -8.2260 H         1 <0>         0.0838
     41 H17        -0.1578   -0.3052   -7.1667 H         1 <0>         0.0717
     42 H18         1.4464    0.2175  -10.1263 H         1 <0>         0.1690
     43 H19         4.3630    0.1577   -4.1795 H         1 <0>         0.1232
     44 H20         5.9860    1.4579   -5.4568 H         1 <0>         0.1228
     45 H21         5.7052    1.9816   -7.8389 H         1 <0>         0.1285
     46 H22         2.2652   -0.2460   -3.3518 H         1 <0>         0.1234
     47 H23        -1.3929   -2.0144   -7.0637 H         1 <0>         0.0357
     48 H24        -0.4561   -3.4831   -7.4292 H         1 <0>         0.0732
     49 H25        -1.7024   -3.5156   -6.1588 H         1 <0>         0.0721
@<TRIPOS>BOND
     1    1    2 1
     2    1   27 1
     3    1   28 1
     4    1   29 1
     5    2    3 1
     6    2   30 1
     7    2   31 1
     8    3    4 1
     9    3    6 am
    10    4    5 1
    11    4   32 1
    12    4   33 1
    13    5   34 1
    14    5   35 1
    15    5   36 1
    16    6    7 2
    17    6    8 1
    18    8    9 1
    19    8   25 1
    20    8   10 1
    21   10   11 1
    22   10   37 1
    23   10   38 1
    24   11   12 1
    25   11   26 1
    26   12   24 1
    27   12   13 1
    28   12   39 1
    29   13   14 1
    30   13   40 1
    31   13   41 1
    32   14   19 1
    33   14   15 2
    34   15   16 1
    35   15   42 1
    36   16   17 1
    37   16   18 1
    38   18   23 ar
    39   18   19 ar
    40   19   20 ar
    41   20   21 ar
    42   20   24 1
    43   21   22 ar
    44   21   43 1
    45   22   23 ar
    46   22   44 1
    47   23   45 1
    48   24   25 2
    49   25   46 1
    50   26   47 1
    51   26   48 1
    52   26   49 1
@<TRIPOS>MOLECULE
CHEMBL138276
   50    53     0     0     0
SMALL
USER_CHARGES

@<TRIPOS>ATOM
      1 C1         -1.7817   -1.3859   -2.0527 C.3       1 <0>        -0.1702
      2 C2         -2.3103   -0.2671   -1.1527 C.3       1 <0>         0.1069
      3 N1         -1.5224   -0.2198    0.0815 N.am      1 <0>        -0.5998
      4 C3         -0.2626    0.5269    0.1181 C.3       1 <0>         0.0917
      5 C4         -0.5522    2.0022    0.4019 C.3       1 <0>        -0.1750
      6 C5         -1.9566   -0.8633    1.1832 C.2       1 <0>         0.5300
      7 O1         -2.9603   -1.5422    1.1330 O.2       1 <0>        -0.5226
      8 C6         -1.1949   -0.7392    2.4776 C.3       1 <0>        -0.1016
      9 H1         -0.8303    0.2813    2.5946 H         1 <0>         0.1312
     10 C7         -2.1091   -1.1018    3.6546 C.3       1 <0>         0.0049
     11 N2         -1.3327   -1.0111    4.8935 N.4       1 <0>        -0.3734
     12 C8         -0.2556   -1.9821    4.9400 C.3       1 <0>         0.0664
     13 C9         -0.6886   -3.2474    5.6897 C.3       1 <0>        -0.0406
     14 C10         0.4524   -4.2335    5.6824 C.2       1 <0>        -0.2020
     15 C11         0.8248   -5.2464    6.4572 C.2       1 <0>         0.0963
     16 N3          1.9825   -5.8285    5.9644 N.pl3     1 <0>        -0.5871
     17 H2          2.4359   -6.5856    6.3672 H         1 <0>         0.4249
     18 C12         2.3932   -5.1878    4.8346 C.ar      1 <0>         0.1115
     19 C13         1.4559   -4.1723    4.6258 C.ar      1 <0>        -0.1253
     20 C14         1.4827   -3.2380    3.5679 C.ar      1 <0>        -0.0316
     21 C15         2.5245   -3.3724    2.6802 C.ar      1 <0>        -0.1007
     22 C16         3.4654   -4.3829    2.8673 C.ar      1 <0>        -0.0996
     23 C17         3.4362   -5.2954    3.9156 C.ar      1 <0>        -0.0963
     24 C18         0.3742   -2.2645    3.6034 C.2       1 <0>        -0.0543
     25 C19        -0.0329   -1.6993    2.4797 C.2       1 <0>        -0.1321
     26 C20        -2.2289   -1.2387    6.0350 C.3       1 <0>        -0.0561
     27 H3         -2.3679   -1.4211   -2.9709 H         1 <0>         0.0740
     28 H4         -0.7368   -1.1934   -2.2958 H         1 <0>         0.0582
     29 H5         -1.8639   -2.3401   -1.5323 H         1 <0>         0.0592
     30 H6         -2.2281    0.6871   -1.6730 H         1 <0>         0.0840
     31 H7         -3.3553   -0.4596   -0.9095 H         1 <0>         0.0907
     32 H8          0.3758    0.1242    0.9044 H         1 <0>         0.0817
     33 H9          0.2428    0.4343   -0.8433 H         1 <0>         0.0907
     34 H10        -1.0575    2.0949    1.3632 H         1 <0>         0.0539
     35 H11         0.3852    2.5578    0.4291 H         1 <0>         0.0762
     36 H12        -1.1906    2.4050   -0.3845 H         1 <0>         0.0672
     37 H13        -2.9466   -0.4054    3.6956 H         1 <0>         0.1450
     38 H14        -2.4811   -2.1187    3.5294 H         1 <0>         0.1454
     39 H15         0.5259   -1.5357    5.5549 H         1 <0>         0.1395
     40 H16        -0.9446   -2.9928    6.7181 H         1 <0>         0.1044
     41 H17        -1.5543   -3.6871    5.1943 H         1 <0>         0.0933
     42 H18         0.3009   -5.5697    7.3446 H         1 <0>         0.1765
     43 H19         2.6126   -2.6979    1.8414 H         1 <0>         0.1285
     44 H20         4.2698   -4.4626    2.1510 H         1 <0>         0.1319
     45 H21         4.1934   -6.0592    4.0146 H         1 <0>         0.1377
     46 H22         0.4714   -1.9288    1.5526 H         1 <0>         0.1475
     47 H23        -2.6773   -2.2288    5.9531 H         1 <0>         0.1303
     48 H24        -1.6599   -1.1731    6.9623 H         1 <0>         0.1307
     49 H25        -3.0144   -0.4830    6.0365 H         1 <0>         0.1300
     50 H26        -0.9410   -0.0842    4.9669 H         1 <0>         0.4278
@<TRIPOS>BOND
     1    1    2 1
     2    1   27 1
     3    1   28 1
     4    1   29 1
     5    2    3 1
     6    2   30 1
     7    2   31 1
     8    3    4 1
     9    3    6 am
    10    4    5 1
    11    4   32 1
    12    4   33 1
    13    5   34 1
    14    5   35 1
    15    5   36 1
    16    6    7 2
    17    6    8 1
    18    8    9 1
    19    8   25 1
    20    8   10 1
    21   10   11 1
    22   10   37 1
    23   10   38 1
    24   11   12 1
    25   11   26 1
    26   11   50 1
    27   12   24 1
    28   12   13 1
    29   12   39 1
    30   13   14 1
    31   13   40 1
    32   13   41 1
    33   14   19 1
    34   14   15 2
    35   15   16 1
    36   15   42 1
    37   16   17 1
    38   16   18 1
    39   18   23 ar
    40   18   19 ar
    41   19   20 ar
    42   20   21 ar
    43   20   24 1
    44   21   22 ar
    45   21   43 1
    46   22   23 ar
    47   22   44 1
    48   23   45 1
    49   24   25 2
    50   25   46 1
    51   26   47 1
    52   26   48 1
    53   26   49 1
@<TRIPOS>MOLECULE
CHEMBL1085010
   64    66     0     0     0
SMALL
USER_CHARGES

@<TRIPOS>ATOM
      1 C1         -0.0187    1.5258    0.0104 C.3       1 <0>        -0.1457
      2 C2          0.0021   -0.0041    0.0020 C.3       1 <0>        -0.0506
      3 C3          0.7421   -0.5109    1.2415 C.3       1 <0>        -0.1452
      4 C4         -1.4117   -0.5257    0.0127 C.ar      1 <0>        -0.0968
      5 C5         -2.2592   -0.2048    1.0557 C.ar      1 <0>        -0.0766
      6 C6         -3.5561   -0.6834    1.0663 C.ar      1 <0>        -0.1434
      7 C7         -4.0087   -1.4838    0.0335 C.ar      1 <0>        -0.0851
      8 C8         -3.1656   -1.8071   -1.0117 C.ar      1 <0>        -0.2060
      9 C9         -1.8651   -1.3237   -1.0273 C.ar      1 <0>         0.1176
     10 O1         -1.0353   -1.6358   -2.0574 O.3       1 <0>        -0.2991
     11 C10        -1.5698   -2.4619   -3.0937 C.3       1 <0>         0.0301
     12 C11        -0.4971   -2.7036   -4.1575 C.3       1 <0>         0.0864
     13 C12        -1.1042   -3.4825   -5.3261 C.3       1 <0>        -0.0432
     14 N1         -0.0743   -3.7146   -6.3476 N.4       1 <0>        -0.3771
     15 C13         0.3548   -2.4279   -6.9088 C.3       1 <0>        -0.0105
     16 C14         1.4846   -2.6574   -7.9150 C.3       1 <0>        -0.1370
     17 C15         0.9813   -3.5648   -9.0412 C.3       1 <0>        -0.1131
     18 C16         0.4674   -4.8748   -8.4368 C.3       1 <0>        -0.1396
     19 C17        -0.6247   -4.5632   -7.4113 C.3       1 <0>        -0.0051
     20 C18         2.1280   -3.8631  -10.0091 C.3       1 <0>         0.0944
     21 N2          1.6187   -4.6313  -11.1478 N.am      1 <0>        -0.5688
     22 C19         1.6145   -5.9706  -11.0713 C.2       1 <0>         0.5228
     23 O2          2.0386   -6.5102  -10.0720 O.2       1 <0>        -0.4995
     24 C20         1.0929   -6.8167  -12.2025 C.3       1 <0>        -0.1456
     25 C21         1.3011   -6.0716  -13.5254 C.3       1 <0>        -0.1285
     26 C22         0.6279   -4.6988  -13.4234 C.3       1 <0>        -0.1447
     27 C23         1.1698   -3.9677  -12.2236 C.2       1 <0>         0.5214
     28 O3          1.2049   -2.7560  -12.2319 O.2       1 <0>        -0.4931
     29 O4          0.5761   -3.4568   -3.5893 O.3       1 <0>        -0.5420
     30 H1          1.0039    1.9031    0.0027 H         1 <0>         0.0607
     31 H2         -0.5459    1.8868   -0.8726 H         1 <0>         0.0536
     32 H3         -0.5289    1.8773    0.9072 H         1 <0>         0.0582
     33 H4          0.5123   -0.3556   -0.8948 H         1 <0>         0.0823
     34 H5          0.7568   -1.6008    1.2356 H         1 <0>         0.0543
     35 H6          1.7647   -0.1336    1.2338 H         1 <0>         0.0607
     36 H7          0.2319   -0.1594    2.1383 H         1 <0>         0.0578
     37 H8         -1.9081    0.4202    1.8635 H         1 <0>         0.1327
     38 H9         -4.2168   -0.4320    1.8828 H         1 <0>         0.1287
     39 H10        -5.0222   -1.8568    0.0443 H         1 <0>         0.1272
     40 H11        -3.5195   -2.4323   -1.8181 H         1 <0>         0.1227
     41 H12        -1.8844   -3.4163   -2.6715 H         1 <0>         0.0756
     42 H13        -2.4271   -1.9654   -3.5483 H         1 <0>         0.0799
     43 H14        -0.1190   -1.7463   -4.5163 H         1 <0>         0.1342
     44 H15        -1.4822   -4.4398   -4.9673 H         1 <0>         0.1388
     45 H16        -1.9228   -2.9080   -5.7595 H         1 <0>         0.1438
     46 H17        -0.4874   -1.9521   -7.4111 H         1 <0>         0.1303
     47 H18         0.7097   -1.7820   -6.1057 H         1 <0>         0.1354
     48 H19         1.8005   -1.7011   -8.3318 H         1 <0>         0.1184
     49 H20         2.3275   -3.1329   -7.4136 H         1 <0>         0.0950
     50 H21         0.1717   -3.0677   -9.5756 H         1 <0>         0.0934
     51 H22         0.0563   -5.5034   -9.2267 H         1 <0>         0.1037
     52 H23         1.2893   -5.3963   -7.9463 H         1 <0>         0.1002
     53 H24        -0.9929   -5.4937   -6.9792 H         1 <0>         0.1317
     54 H25        -1.4460   -4.0419   -7.9029 H         1 <0>         0.1277
     55 H26         2.5559   -2.9260  -10.3652 H         1 <0>         0.1064
     56 H27         2.8961   -4.4411   -9.4952 H         1 <0>         0.1032
     57 H28         1.6330   -7.7631  -12.2286 H         1 <0>         0.1191
     58 H29         0.0298   -7.0068  -12.0550 H         1 <0>         0.1129
     59 H30         2.3678   -5.9435  -13.7093 H         1 <0>         0.0815
     60 H31         0.8522   -6.6398  -14.3401 H         1 <0>         0.1021
     61 H32         0.8340   -4.1240  -14.3263 H         1 <0>         0.1196
     62 H33        -0.4485   -4.8284  -13.3108 H         1 <0>         0.1132
     63 H34         0.3120   -4.3224   -3.2487 H         1 <0>         0.3898
     64 H35         0.7178   -4.1763   -5.9263 H         1 <0>         0.4288
@<TRIPOS>BOND
     1    1    2 1
     2    1   30 1
     3    1   31 1
     4    1   32 1
     5    2    3 1
     6    2    4 1
     7    2   33 1
     8    3   34 1
     9    3   35 1
    10    3   36 1
    11    4    9 ar
    12    4    5 ar
    13    5    6 ar
    14    5   37 1
    15    6    7 ar
    16    6   38 1
    17    7    8 ar
    18    7   39 1
    19    8    9 ar
    20    8   40 1
    21    9   10 1
    22   10   11 1
    23   11   12 1
    24   11   41 1
    25   11   42 1
    26   12   13 1
    27   12   29 1
    28   12   43 1
    29   13   14 1
    30   13   44 1
    31   13   45 1
    32   14   19 1
    33   14   15 1
    34   14   64 1
    35   15   16 1
    36   15   46 1
    37   15   47 1
    38   16   17 1
    39   16   48 1
    40   16   49 1
    41   17   18 1
    42   17   20 1
    43   17   50 1
    44   18   19 1
    45   18   51 1
    46   18   52 1
    47   19   53 1
    48   19   54 1
    49   20   21 1
    50   20   55 1
    51   20   56 1
    52   21   27 am
    53   21   22 am
    54   22   23 2
    55   22   24 1
    56   24   25 1
    57   24   57 1
    58   24   58 1
    59   25   26 1
    60   25   59 1
    61   25   60 1
    62   26   27 1
    63   26   61 1
    64   26   62 1
    65   27   28 2
    66   29   63 1
@<TRIPOS>MOLECULE
CHEMBL1085010
   64    66     0     0     0
SMALL
USER_CHARGES

@<TRIPOS>ATOM
      1 C1         -3.2725   -8.7141   -0.1962 C.3       1 <0>        -0.1453
      2 C2         -3.8158   -8.2153   -1.5366 C.3       1 <0>        -0.0508
      3 C3         -4.8115   -9.2342   -2.0944 C.3       1 <0>        -0.1454
      4 C4         -4.5096   -6.8925   -1.3366 C.ar      1 <0>        -0.0967
      5 C5         -5.5890   -6.8007   -0.4791 C.ar      1 <0>        -0.0766
      6 C6         -6.2262   -5.5876   -0.2955 C.ar      1 <0>        -0.1434
      7 C7         -5.7850   -4.4633   -0.9689 C.ar      1 <0>        -0.0851
      8 C8         -4.7061   -4.5498   -1.8269 C.ar      1 <0>        -0.2060
      9 C9         -4.0615   -5.7650   -2.0089 C.ar      1 <0>         0.1175
     10 O1         -2.9962   -5.8515   -2.8483 O.3       1 <0>        -0.2990
     11 C10        -2.5900   -4.6501   -3.5069 C.3       1 <0>         0.0303
     12 C11        -1.3849   -4.9423   -4.4031 C.3       1 <0>         0.0864
     13 C12        -1.0275   -3.6875   -5.2023 C.3       1 <0>        -0.0432
     14 N1          0.1201   -3.9724   -6.0739 N.4       1 <0>        -0.3774
     15 C13         0.5589   -2.7316   -6.7239 C.3       1 <0>        -0.0038
     16 C14         1.8038   -3.0072   -7.5699 C.3       1 <0>        -0.1385
     17 C15         1.4680   -4.0531   -8.6368 C.3       1 <0>        -0.1133
     18 C16         0.9412   -5.3168   -7.9508 C.3       1 <0>        -0.1380
     19 C17        -0.2718   -4.9557   -7.0907 C.3       1 <0>        -0.0114
     20 C18         2.7282   -4.3921   -9.4355 C.3       1 <0>         0.0946
     21 N2          2.3824   -5.3014  -10.5308 N.am      1 <0>        -0.5688
     22 C19         2.4226   -6.6235  -10.3077 C.2       1 <0>         0.5222
     23 O2          2.7515   -7.0321   -9.2147 O.2       1 <0>        -0.4981
     24 C20         2.0668   -7.6101  -11.3884 C.3       1 <0>        -0.1456
     25 C21         2.3942   -6.9989  -12.7550 C.3       1 <0>        -0.1284
     26 C22         1.6599   -5.6596  -12.8791 C.3       1 <0>        -0.1448
     27 C23         2.0326   -4.7790  -11.7158 C.2       1 <0>         0.5218
     28 O3          2.0205   -3.5748  -11.8541 O.2       1 <0>        -0.4939
     29 O4         -0.2710   -5.3249   -3.5938 O.3       1 <0>        -0.5415
     30 H1         -2.7707   -9.6708   -0.3409 H         1 <0>         0.0607
     31 H2         -2.5631   -7.9881    0.2012 H         1 <0>         0.0543
     32 H3         -4.0967   -8.8387    0.5062 H         1 <0>         0.0578
     33 H4         -2.9916   -8.0907   -2.2390 H         1 <0>         0.0823
     34 H5         -5.1986   -8.8789   -3.0493 H         1 <0>         0.0535
     35 H6         -4.3097  -10.1910   -2.2390 H         1 <0>         0.0607
     36 H7         -5.6357   -9.3588   -1.3920 H         1 <0>         0.0582
     37 H8         -5.9355   -7.6773    0.0480 H         1 <0>         0.1327
     38 H9         -7.0702   -5.5181    0.3747 H         1 <0>         0.1286
     39 H10        -6.2847   -3.5169   -0.8241 H         1 <0>         0.1273
     40 H11        -4.3619   -3.6714   -2.3527 H         1 <0>         0.1227
     41 H12        -3.4123   -4.2733   -4.1151 H         1 <0>         0.0798
     42 H13        -2.3164   -3.9023   -2.7625 H         1 <0>         0.0758
     43 H14        -1.6306   -5.7525   -5.0896 H         1 <0>         0.1332
     44 H15        -1.8810   -3.3892   -5.8112 H         1 <0>         0.1436
     45 H16        -0.7710   -2.8804   -4.5160 H         1 <0>         0.1395
     46 H17        -0.2391   -2.3556   -7.3642 H         1 <0>         0.1301
     47 H18         0.7944   -1.9872   -5.9634 H         1 <0>         0.1341
     48 H19         2.1269   -2.0851   -8.0531 H         1 <0>         0.1187
     49 H20         2.6025   -3.3830   -6.9304 H         1 <0>         0.0942
     50 H21         0.7053   -3.6577   -9.3076 H         1 <0>         0.0934
     51 H22         0.6477   -6.0457   -8.7062 H         1 <0>         0.1034
     52 H23         1.7220   -5.7406   -7.3192 H         1 <0>         0.1009
     53 H24        -0.6496   -5.8532   -6.6009 H         1 <0>         0.1328
     54 H25        -1.0521   -4.5323   -7.7232 H         1 <0>         0.1279
     55 H26         3.1563   -3.4769   -9.8445 H         1 <0>         0.1060
     56 H27         3.4553   -4.8722   -8.7805 H         1 <0>         0.1031
     57 H28         2.6435   -8.5247  -11.2508 H         1 <0>         0.1192
     58 H29         1.0022   -7.8383  -11.3370 H         1 <0>         0.1131
     59 H30         3.4690   -6.8358  -12.8350 H         1 <0>         0.0814
     60 H31         2.0636   -7.6723  -13.5457 H         1 <0>         0.1021
     61 H32         1.9443   -5.1734  -13.8123 H         1 <0>         0.1195
     62 H33         0.5837   -5.8321  -12.8704 H         1 <0>         0.1133
     63 H34         0.0033   -4.6501   -2.9579 H         1 <0>         0.3896
     64 H35         0.8769   -4.3456   -5.5206 H         1 <0>         0.4289
@<TRIPOS>BOND
     1    1    2 1
     2    1   30 1
     3    1   31 1
     4    1   32 1
     5    2    3 1
     6    2    4 1
     7    2   33 1
     8    3   34 1
     9    3   35 1
    10    3   36 1
    11    4    9 ar
    12    4    5 ar
    13    5    6 ar
    14    5   37 1
    15    6    7 ar
    16    6   38 1
    17    7    8 ar
    18    7   39 1
    19    8    9 ar
    20    8   40 1
    21    9   10 1
    22   10   11 1
    23   11   12 1
    24   11   41 1
    25   11   42 1
    26   12   13 1
    27   12   29 1
    28   12   43 1
    29   13   14 1
    30   13   44 1
    31   13   45 1
    32   14   19 1
    33   14   15 1
    34   14   64 1
    35   15   16 1
    36   15   46 1
    37   15   47 1
    38   16   17 1
    39   16   48 1
    40   16   49 1
    41   17   18 1
    42   17   20 1
    43   17   50 1
    44   18   19 1
    45   18   51 1
    46   18   52 1
    47   19   53 1
    48   19   54 1
    49   20   21 1
    50   20   55 1
    51   20   56 1
    52   21   27 am
    53   21   22 am
    54   22   23 2
    55   22   24 1
    56   24   25 1
    57   24   57 1
    58   24   58 1
    59   25   26 1
    60   25   59 1
    61   25   60 1
    62   26   27 1
    63   26   61 1
    64   26   62 1
    65   27   28 2
    66   29   63 1
@<TRIPOS>MOLECULE
CHEMBL1221736
   54    57     0     0     0
SMALL
USER_CHARGES

@<TRIPOS>ATOM
      1 C1          0.4673    0.8123    0.0522 C.ar      1 <0>        -0.0378
      2 C2          1.7133    1.4152    0.0295 C.ar      1 <0>        -0.2401
      3 C3          2.8668    0.6671   -0.0730 C.ar      1 <0>         0.3003
      4 C4          2.8100   -0.7384   -0.1575 C.ar      1 <0>        -0.0286
      5 C5          1.5333   -1.3141   -0.1312 C.ar      1 <0>        -0.0474
      6 C6          0.3837   -0.5665   -0.0293 C.ar      1 <0>        -0.2320
      7 C7         -0.9613   -1.2459   -0.0062 C.3       1 <0>         0.1629
      8 H1         -0.8795   -2.1958    0.5222 H         1 <0>         0.1143
      9 C8         -1.4297   -1.4988   -1.4406 C.3       1 <0>        -0.0501
     10 N1         -2.7407   -2.1610   -1.4180 N.4       1 <0>        -0.5085
     11 C9         -3.1905   -2.4039   -2.7952 C.3       1 <0>         0.0227
     12 C10        -3.5347   -1.0663   -3.4823 C.3       1 <0>        -0.1411
     13 C11        -4.7671   -1.3965   -4.3605 C.3       1 <0>        -0.1222
     14 C12        -5.5666   -2.3808   -3.4712 C.3       1 <0>        -0.1367
     15 C13        -4.4824   -3.2397   -2.7881 C.3       1 <0>        -0.1044
     16 C14        -4.8941   -3.5561   -1.3489 C.3       1 <0>        -0.1052
     17 C15        -5.5571   -2.3260   -0.7259 C.3       1 <0>        -0.1285
     18 C16        -5.9687   -2.6425    0.7133 C.3       1 <0>        -0.1252
     19 C17        -6.9567   -3.8107    0.7160 C.3       1 <0>        -0.1232
     20 C18        -6.2938   -5.0408    0.0930 C.3       1 <0>        -0.1248
     21 C19        -5.8821   -4.7243   -1.3462 C.3       1 <0>        -0.1092
     22 O1         -1.9064   -0.4085    0.6629 O.3       1 <0>        -0.5543
     23 S1          1.8709   -3.0539   -0.2550 S.3       1 <0>        -0.1200
     24 C20         3.6516   -2.9527   -0.3350 C.2       1 <0>         0.5378
     25 O2          4.4628   -3.8552   -0.4300 O.2       1 <0>        -0.4760
     26 N2          3.8709   -1.6251   -0.2636 N.am      1 <0>        -0.6196
     27 H2          4.7795   -1.2864   -0.2867 H         1 <0>         0.4154
     28 O3          4.0738    1.2930   -0.0932 O.3       1 <0>        -0.6869
     29 H3         -0.4280    1.4103    0.1369 H         1 <0>         0.1126
     30 H4          1.7830    2.4911    0.0929 H         1 <0>         0.1173
     31 H5         -1.5115   -0.5489   -1.9689 H         1 <0>         0.1348
     32 H6         -0.7088   -2.1375   -1.9509 H         1 <0>         0.1399
     33 H7         -2.6650   -3.0403   -0.9289 H         1 <0>         0.4231
     34 H8         -2.4129   -2.9231   -3.3555 H         1 <0>         0.1418
     35 H9         -3.7874   -0.3097   -2.7394 H         1 <0>         0.0858
     36 H10        -2.7033   -0.7308   -4.1023 H         1 <0>         0.0983
     37 H11        -5.3497   -0.4976   -4.5622 H         1 <0>         0.0860
     38 H12        -4.4615   -1.8767   -5.2901 H         1 <0>         0.0810
     39 H13        -6.1475   -1.8366   -2.7265 H         1 <0>         0.0921
     40 H14        -6.2181   -3.0047   -4.0831 H         1 <0>         0.0834
     41 H15        -4.3321   -4.1641   -3.3458 H         1 <0>         0.1095
     42 H16        -4.0111   -3.8257   -0.7694 H         1 <0>         0.0663
     43 H17        -4.8532   -1.4938   -0.7279 H         1 <0>         0.0486
     44 H18        -6.4400   -2.0565   -1.3055 H         1 <0>         0.0941
     45 H19        -5.0858   -2.9120    1.2928 H         1 <0>         0.0663
     46 H20        -6.4410   -1.7661    1.1571 H         1 <0>         0.0725
     47 H21        -7.2500   -4.0361    1.7413 H         1 <0>         0.0681
     48 H22        -7.8397   -3.5411    0.1364 H         1 <0>         0.0649
     49 H23        -5.4108   -5.3103    0.6725 H         1 <0>         0.0644
     50 H24        -6.9976   -5.8730    0.0949 H         1 <0>         0.0693
     51 H25        -6.7650   -4.4548   -1.9258 H         1 <0>         0.0726
     52 H26        -5.4098   -5.6007   -1.7901 H         1 <0>         0.0701
     53 H27        -2.0303    0.4555    0.2467 H         1 <0>         0.3825
     54 H28        -3.4081   -1.5698   -0.9455 H         1 <0>         0.4229
@<TRIPOS>BOND
     1    1    6 ar
     2    1    2 ar
     3    1   29 1
     4    2    3 ar
     5    2   30 1
     6    3    4 ar
     7    3   28 1
     8    4   26 1
     9    4    5 ar
    10    5    6 ar
    11    5   23 1
    12    6    7 1
    13    7    8 1
    14    7    9 1
    15    7   22 1
    16    9   10 1
    17    9   31 1
    18    9   32 1
    19   10   11 1
    20   10   33 1
    21   10   54 1
    22   11   15 1
    23   11   12 1
    24   11   34 1
    25   12   13 1
    26   12   35 1
    27   12   36 1
    28   13   14 1
    29   13   37 1
    30   13   38 1
    31   14   15 1
    32   14   39 1
    33   14   40 1
    34   15   16 1
    35   15   41 1
    36   16   21 1
    37   16   17 1
    38   16   42 1
    39   17   18 1
    40   17   43 1
    41   17   44 1
    42   18   19 1
    43   18   45 1
    44   18   46 1
    45   19   20 1
    46   19   47 1
    47   19   48 1
    48   20   21 1
    49   20   49 1
    50   20   50 1
    51   21   51 1
    52   21   52 1
    53   22   53 1
    54   23   24 1
    55   24   25 2
    56   24   26 am
    57   26   27 1
@<TRIPOS>MOLECULE
CHEMBL1221736
   54    57     0     0     0
SMALL
USER_CHARGES

@<TRIPOS>ATOM
      1 C1         -0.0167    1.3796    0.0096 C.ar      1 <0>        -0.0378
      2 C2          1.1829    2.0705    0.0019 C.ar      1 <0>        -0.2401
      3 C3          2.3903    1.4051   -0.0137 C.ar      1 <0>         0.3004
      4 C4          2.4377   -0.0032   -0.0217 C.ar      1 <0>        -0.0286
      5 C5          1.2054   -0.6693   -0.0130 C.ar      1 <0>        -0.0475
      6 C6          0.0021   -0.0041    0.0020 C.ar      1 <0>        -0.2329
      7 C7         -1.2907   -0.7785    0.0107 C.3       1 <0>         0.1630
      8 H1         -1.1640   -1.6905    0.5940 H         1 <0>         0.1145
      9 C8         -1.6778   -1.1407   -1.4245 C.3       1 <0>        -0.0487
     10 N1         -2.9380   -1.8956   -1.4160 N.4       1 <0>        -0.5040
     11 C9         -3.3097   -2.2434   -2.7940 C.3       1 <0>         0.0198
     12 C10        -3.6821   -0.9718   -3.5764 C.3       1 <0>        -0.1416
     13 C11        -5.1488   -1.1427   -4.0228 C.3       1 <0>        -0.1286
     14 C12        -5.3671   -2.6761   -4.0313 C.3       1 <0>        -0.1162
     15 C13        -4.5632   -3.1427   -2.7923 C.3       1 <0>        -0.1028
     16 C14        -4.1671   -4.6137   -2.9338 C.3       1 <0>        -0.0873
     17 C15        -5.4258   -5.4835   -2.9293 C.3       1 <0>        -0.1127
     18 C16        -5.0297   -6.9545   -3.0708 C.3       1 <0>        -0.1228
     19 C17        -4.1289   -7.3550   -1.9007 C.3       1 <0>        -0.1231
     20 C18        -2.8702   -6.4852   -1.9051 C.3       1 <0>        -0.1195
     21 C19        -3.2663   -5.0141   -1.7636 C.3       1 <0>        -0.1294
     22 O1         -2.3211    0.0211    0.5946 O.3       1 <0>        -0.5543
     23 S1          1.6714   -2.3835   -0.0263 S.3       1 <0>        -0.1195
     24 C20         3.4422   -2.1558   -0.0424 C.2       1 <0>         0.5377
     25 O2          4.3192   -2.9998   -0.0552 O.2       1 <0>        -0.4759
     26 N2          3.5628   -0.8137   -0.0368 N.am      1 <0>        -0.6197
     27 H2          4.4451   -0.4107   -0.0434 H         1 <0>         0.4154
     28 O3          3.5491    2.1163   -0.0218 O.3       1 <0>        -0.6865
     29 H3         -0.9553    1.9136    0.0259 H         1 <0>         0.1128
     30 H4          1.1728    3.1505    0.0078 H         1 <0>         0.1173
     31 H5         -1.8046   -0.2287   -2.0078 H         1 <0>         0.1369
     32 H6         -0.8919   -1.7507   -1.8699 H         1 <0>         0.1400
     33 H7         -2.8207   -2.7399   -0.8761 H         1 <0>         0.4224
     34 H8         -2.4829   -2.7563   -3.2853 H         1 <0>         0.1414
     35 H9         -3.5870   -0.0967   -2.9337 H         1 <0>         0.0860
     36 H10        -3.0362   -0.8673   -4.4482 H         1 <0>         0.1016
     37 H11        -5.8223   -0.6655   -3.3110 H         1 <0>         0.0770
     38 H12        -5.2940   -0.7312   -5.0216 H         1 <0>         0.0849
     39 H13        -6.4243   -2.9165   -3.9187 H         1 <0>         0.0860
     40 H14        -4.9641   -3.1186   -4.9423 H         1 <0>         0.0825
     41 H15        -5.1421   -2.9884   -1.8817 H         1 <0>         0.0957
     42 H16        -3.6299   -4.7568   -3.8713 H         1 <0>         0.0849
     43 H17        -5.9630   -5.3404   -1.9918 H         1 <0>         0.0650
     44 H18        -6.0675   -5.1982   -3.7630 H         1 <0>         0.0685
     45 H19        -5.9264   -7.5742   -3.0677 H         1 <0>         0.0663
     46 H20        -4.4925   -7.0976   -4.0084 H         1 <0>         0.0639
     47 H21        -4.6661   -7.2119   -0.9631 H         1 <0>         0.0630
     48 H22        -3.8467   -8.4030   -2.0015 H         1 <0>         0.0662
     49 H23        -2.2285   -6.7705   -1.0715 H         1 <0>         0.0692
     50 H24        -2.3330   -6.6283   -2.8427 H         1 <0>         0.0667
     51 H25        -2.3696   -4.3945   -1.7668 H         1 <0>         0.0524
     52 H26        -3.8036   -4.8711   -0.8261 H         1 <0>         0.0683
     53 H27        -2.4884    0.8504    0.1263 H         1 <0>         0.3831
     54 H28        -3.6655   -1.3310   -1.0037 H         1 <0>         0.4259
@<TRIPOS>BOND
     1    1    6 ar
     2    1    2 ar
     3    1   29 1
     4    2    3 ar
     5    2   30 1
     6    3    4 ar
     7    3   28 1
     8    4   26 1
     9    4    5 ar
    10    5    6 ar
    11    5   23 1
    12    6    7 1
    13    7    8 1
    14    7    9 1
    15    7   22 1
    16    9   10 1
    17    9   31 1
    18    9   32 1
    19   10   11 1
    20   10   33 1
    21   10   54 1
    22   11   15 1
    23   11   12 1
    24   11   34 1
    25   12   13 1
    26   12   35 1
    27   12   36 1
    28   13   14 1
    29   13   37 1
    30   13   38 1
    31   14   15 1
    32   14   39 1
    33   14   40 1
    34   15   16 1
    35   15   41 1
    36   16   21 1
    37   16   17 1
    38   16   42 1
    39   17   18 1
    40   17   43 1
    41   17   44 1
    42   18   19 1
    43   18   45 1
    44   18   46 1
    45   19   20 1
    46   19   47 1
    47   19   48 1
    48   20   21 1
    49   20   49 1
    50   20   50 1
    51   21   51 1
    52   21   52 1
    53   22   53 1
    54   23   24 1
    55   24   25 2
    56   24   26 am
    57   26   27 1
@<TRIPOS>MOLECULE
CHEMBL1221736
   54    57     0     0     0
SMALL
USER_CHARGES

@<TRIPOS>ATOM
      1 C1         -0.0167    1.3796    0.0096 C.ar      1 <0>        -0.0377
      2 C2          1.1829    2.0705    0.0019 C.ar      1 <0>        -0.2401
      3 C3          2.3903    1.4051   -0.0137 C.ar      1 <0>         0.3004
      4 C4          2.4377   -0.0032   -0.0217 C.ar      1 <0>        -0.0287
      5 C5          1.2054   -0.6693   -0.0130 C.ar      1 <0>        -0.0475
      6 C6          0.0021   -0.0041    0.0020 C.ar      1 <0>        -0.2331
      7 C7         -1.2907   -0.7785    0.0107 C.3       1 <0>         0.1634
      8 H1         -1.1640   -1.6905    0.5940 H         1 <0>         0.1150
      9 C8         -1.6778   -1.1407   -1.4245 C.3       1 <0>        -0.0490
     10 N1         -2.9380   -1.8956   -1.4160 N.4       1 <0>        -0.5010
     11 C9         -3.3097   -2.2434   -2.7940 C.3       1 <0>         0.0171
     12 C10        -2.3066   -3.2639   -3.3704 C.3       1 <0>        -0.1442
     13 C11        -2.9810   -4.6372   -3.1293 C.3       1 <0>        -0.1346
     14 C12        -4.4763   -4.3357   -3.3984 C.3       1 <0>        -0.1209
     15 C13        -4.6892   -2.9249   -2.8118 C.3       1 <0>        -0.1014
     16 C14        -5.6548   -2.1308   -3.6939 C.3       1 <0>        -0.0828
     17 C15        -5.8018   -0.7121   -3.1403 C.3       1 <0>        -0.1246
     18 C16        -6.7673    0.0820   -4.0224 C.3       1 <0>        -0.1204
     19 C17        -8.1338   -0.6063   -4.0309 C.3       1 <0>        -0.1232
     20 C18        -7.9867   -2.0250   -4.5845 C.3       1 <0>        -0.1225
     21 C19        -7.0212   -2.8191   -3.7024 C.3       1 <0>        -0.1137
     22 O1         -2.3211    0.0211    0.5946 O.3       1 <0>        -0.5545
     23 S1          1.6714   -2.3835   -0.0263 S.3       1 <0>        -0.1197
     24 C20         3.4422   -2.1558   -0.0424 C.2       1 <0>         0.5378
     25 O2          4.3192   -2.9998   -0.0552 O.2       1 <0>        -0.4758
     26 N2          3.5628   -0.8137   -0.0368 N.am      1 <0>        -0.6197
     27 H2          4.4451   -0.4107   -0.0434 H         1 <0>         0.4154
     28 O3          3.5491    2.1163   -0.0218 O.3       1 <0>        -0.6865
     29 H3         -0.9553    1.9136    0.0259 H         1 <0>         0.1128
     30 H4          1.1728    3.1505    0.0078 H         1 <0>         0.1173
     31 H5         -1.8046   -0.2287   -2.0078 H         1 <0>         0.1356
     32 H6         -0.8919   -1.7507   -1.8699 H         1 <0>         0.1414
     33 H7         -2.8207   -2.7399   -0.8761 H         1 <0>         0.4240
     34 H8         -3.3284   -1.3465   -3.4131 H         1 <0>         0.1417
     35 H9         -2.1592   -3.0933   -4.4368 H         1 <0>         0.1079
     36 H10        -1.3566   -3.2069   -2.8391 H         1 <0>         0.0924
     37 H11        -2.6045   -5.3811   -3.8315 H         1 <0>         0.0886
     38 H12        -2.8322   -4.9654   -2.1006 H         1 <0>         0.0749
     39 H13        -4.6792   -4.3382   -4.4693 H         1 <0>         0.0830
     40 H14        -5.1096   -5.0609   -2.8874 H         1 <0>         0.0828
     41 H15        -5.0829   -2.9976   -1.7980 H         1 <0>         0.0919
     42 H16        -5.2644   -2.0855   -4.7106 H         1 <0>         0.0831
     43 H17        -6.1922   -0.7574   -2.1236 H         1 <0>         0.0668
     44 H18        -4.8283   -0.2217   -3.1342 H         1 <0>         0.0570
     45 H19        -6.8721    1.0928   -3.6280 H         1 <0>         0.0666
     46 H20        -6.3770    0.1273   -5.0391 H         1 <0>         0.0646
     47 H21        -8.5241   -0.6516   -3.0142 H         1 <0>         0.0628
     48 H22        -8.8216   -0.0405   -4.6593 H         1 <0>         0.0650
     49 H23        -8.9602   -2.5154   -4.5906 H         1 <0>         0.0659
     50 H24        -7.5964   -1.9797   -5.6012 H         1 <0>         0.0635
     51 H25        -6.9164   -3.8298   -4.0968 H         1 <0>         0.0681
     52 H26        -7.4115   -2.8644   -2.6857 H         1 <0>         0.0647
     53 H27        -2.4884    0.8504    0.1263 H         1 <0>         0.3833
     54 H28        -3.6655   -1.3310   -1.0037 H         1 <0>         0.4269
@<TRIPOS>BOND
     1    1    6 ar
     2    1    2 ar
     3    1   29 1
     4    2    3 ar
     5    2   30 1
     6    3    4 ar
     7    3   28 1
     8    4   26 1
     9    4    5 ar
    10    5    6 ar
    11    5   23 1
    12    6    7 1
    13    7    8 1
    14    7    9 1
    15    7   22 1
    16    9   10 1
    17    9   31 1
    18    9   32 1
    19   10   11 1
    20   10   33 1
    21   10   54 1
    22   11   15 1
    23   11   12 1
    24   11   34 1
    25   12   13 1
    26   12   35 1
    27   12   36 1
    28   13   14 1
    29   13   37 1
    30   13   38 1
    31   14   15 1
    32   14   39 1
    33   14   40 1
    34   15   16 1
    35   15   41 1
    36   16   21 1
    37   16   17 1
    38   16   42 1
    39   17   18 1
    40   17   43 1
    41   17   44 1
    42   18   19 1
    43   18   45 1
    44   18   46 1
    45   19   20 1
    46   19   47 1
    47   19   48 1
    48   20   21 1
    49   20   49 1
    50   20   50 1
    51   21   51 1
    52   21   52 1
    53   22   53 1
    54   23   24 1
    55   24   25 2
    56   24   26 am
    57   26   27 1
@<TRIPOS>MOLECULE
CHEMBL1221736
   54    57     0     0     0
SMALL
USER_CHARGES

@<TRIPOS>ATOM
      1 C1         -2.5199    3.1866   -0.5537 C.ar      1 <0>        -0.0378
      2 C2         -1.7715    4.3464   -0.6608 C.ar      1 <0>        -0.2401
      3 C3         -0.3937    4.3130   -0.6266 C.ar      1 <0>         0.3004
      4 C4          0.2948    3.0922   -0.4805 C.ar      1 <0>        -0.0287
      5 C5         -0.4940    1.9395   -0.3745 C.ar      1 <0>        -0.0473
      6 C6         -1.8681    1.9745   -0.4093 C.ar      1 <0>        -0.2322
      7 C7         -2.6609    0.6984   -0.2903 C.3       1 <0>         0.1631
      8 H1         -2.1495    0.0148    0.3873 H         1 <0>         0.1134
      9 C8         -2.7906    0.0480   -1.6691 C.3       1 <0>        -0.0503
     10 N1         -3.5634   -1.1959   -1.5530 N.4       1 <0>        -0.5086
     11 C9         -3.6878   -1.8204   -2.8768 C.3       1 <0>         0.0236
     12 C10        -2.3166   -2.3539   -3.3404 C.3       1 <0>        -0.1431
     13 C11        -2.6524   -3.6730   -4.0795 C.3       1 <0>        -0.1218
     14 C12        -3.7971   -4.2646   -3.2199 C.3       1 <0>        -0.1370
     15 C13        -4.6291   -3.0352   -2.8002 C.3       1 <0>        -0.1040
     16 C14        -5.1408   -3.2123   -1.3692 C.3       1 <0>        -0.1051
     17 C15        -6.3831   -4.1052   -1.3786 C.3       1 <0>        -0.1088
     18 C16        -6.8948   -4.2823    0.0524 C.3       1 <0>        -0.1244
     19 C17        -5.8052   -4.9335    0.9066 C.3       1 <0>        -0.1228
     20 C18        -4.5628   -4.0406    0.9161 C.3       1 <0>        -0.1267
     21 C19        -4.0512   -3.8635   -0.5149 C.3       1 <0>        -0.1297
     22 O1         -3.9622    0.9921    0.2221 O.3       1 <0>        -0.5546
     23 S1          0.7068    0.6408   -0.2080 S.3       1 <0>        -0.1203
     24 C20         2.1751    1.6538   -0.2836 C.2       1 <0>         0.5379
     25 O2          3.3414    1.3113   -0.2206 O.2       1 <0>        -0.4760
     26 N2          1.6662    2.8931   -0.4281 N.am      1 <0>        -0.6195
     27 H2          2.2649    3.6533   -0.4962 H         1 <0>         0.4154
     28 O3          0.3092    5.4718   -0.7355 O.3       1 <0>        -0.6868
     29 H3         -3.5988    3.2278   -0.5780 H         1 <0>         0.1129
     30 H4         -2.2762    5.2945   -0.7736 H         1 <0>         0.1173
     31 H5         -3.3020    0.7316   -2.3467 H         1 <0>         0.1354
     32 H6         -1.7980   -0.1760   -2.0599 H         1 <0>         0.1396
     33 H7         -3.0899   -1.8287   -0.9258 H         1 <0>         0.4202
     34 H8         -4.0703   -1.0965   -3.5964 H         1 <0>         0.1410
     35 H9         -1.8418   -1.6462   -4.0199 H         1 <0>         0.0987
     36 H10        -1.6738   -2.5504   -2.4824 H         1 <0>         0.0877
     37 H11        -2.9961   -3.4708   -5.0939 H         1 <0>         0.0806
     38 H12        -1.7911   -4.3410   -4.0882 H         1 <0>         0.0865
     39 H13        -4.4027   -4.9512   -3.8114 H         1 <0>         0.0833
     40 H14        -3.3934   -4.7696   -2.3423 H         1 <0>         0.0921
     41 H15        -5.4680   -2.9012   -3.4832 H         1 <0>         0.1090
     42 H16        -5.3964   -2.2385   -0.9516 H         1 <0>         0.0679
     43 H17        -7.1594   -3.6413   -1.9872 H         1 <0>         0.0697
     44 H18        -6.1275   -5.0790   -1.7962 H         1 <0>         0.0725
     45 H19        -7.1504   -3.3085    0.4700 H         1 <0>         0.0645
     46 H20        -7.7799   -4.9185    0.0457 H         1 <0>         0.0691
     47 H21        -6.1697   -5.0597    1.9261 H         1 <0>         0.0682
     48 H22        -5.5496   -5.9073    0.4890 H         1 <0>         0.0651
     49 H23        -4.8184   -3.0668    1.3337 H         1 <0>         0.0667
     50 H24        -3.7866   -4.5045    1.5246 H         1 <0>         0.0728
     51 H25        -3.7956   -4.8373   -0.9326 H         1 <0>         0.0952
     52 H26        -3.1661   -3.2273   -0.5082 H         1 <0>         0.0470
     53 H27        -4.4756    1.5965   -0.3314 H         1 <0>         0.3832
     54 H28        -4.4822   -0.9885   -1.1912 H         1 <0>         0.4253
@<TRIPOS>BOND
     1    1    6 ar
     2    1    2 ar
     3    1   29 1
     4    2    3 ar
     5    2   30 1
     6    3    4 ar
     7    3   28 1
     8    4   26 1
     9    4    5 ar
    10    5    6 ar
    11    5   23 1
    12    6    7 1
    13    7    8 1
    14    7    9 1
    15    7   22 1
    16    9   10 1
    17    9   31 1
    18    9   32 1
    19   10   11 1
    20   10   33 1
    21   10   54 1
    22   11   15 1
    23   11   12 1
    24   11   34 1
    25   12   13 1
    26   12   35 1
    27   12   36 1
    28   13   14 1
    29   13   37 1
    30   13   38 1
    31   14   15 1
    32   14   39 1
    33   14   40 1
    34   15   16 1
    35   15   41 1
    36   16   21 1
    37   16   17 1
    38   16   42 1
    39   17   18 1
    40   17   43 1
    41   17   44 1
    42   18   19 1
    43   18   45 1
    44   18   46 1
    45   19   20 1
    46   19   47 1
    47   19   48 1
    48   20   21 1
    49   20   49 1
    50   20   50 1
    51   21   51 1
    52   21   52 1
    53   22   53 1
    54   23   24 1
    55   24   25 2
    56   24   26 am
    57   26   27 1
@<TRIPOS>MOLECULE
CHEMBL1221735
   51    54     0     0     0
SMALL
USER_CHARGES

@<TRIPOS>ATOM
      1 C1         -0.2493    1.6520    0.1132 C.3       1 <0>        -0.1372
      2 C2         -0.0755    0.1340    0.0341 C.3       1 <0>        -0.0787
      3 C3          0.7237   -0.3974   -1.1948 C.3       1 <0>        -0.1323
      4 C4          1.1855   -1.8126   -0.7784 C.3       1 <0>        -0.1341
      5 C5          0.6218   -2.0031    0.6628 C.3       1 <0>        -0.0900
      6 H1          1.1025   -2.7745    1.2644 H         1 <0>         0.1166
      7 C6          0.7210   -0.5351    1.2094 C.3       1 <0>        -0.0518
      8 C7          2.1684   -0.0437    1.2746 C.3       1 <0>        -0.1428
      9 C8          0.0059   -0.3733    2.5523 C.3       1 <0>        -0.1492
     10 C9         -0.9172   -2.1546    0.4632 C.3       1 <0>        -0.1354
     11 C10        -1.3895   -0.7050    0.0620 C.3       1 <0>         0.0191
     12 H2         -2.0873   -0.2940    0.7916 H         1 <0>         0.1433
     13 N1         -2.0032   -0.7399   -1.2722 N.4       1 <0>        -0.5024
     14 C11        -3.3114   -1.4035   -1.1922 C.3       1 <0>        -0.0469
     15 C12        -3.9506   -1.4399   -2.5818 C.3       1 <0>         0.1630
     16 H3         -3.3045   -1.9915   -3.2646 H         1 <0>         0.1140
     17 C13        -5.2926   -2.1207   -2.4997 C.ar      1 <0>        -0.2327
     18 C14        -6.4460   -1.3686   -2.3582 C.ar      1 <0>        -0.0378
     19 C15        -7.6677   -2.0149   -2.2853 C.ar      1 <0>        -0.2397
     20 C16        -7.7537   -3.3896   -2.3513 C.ar      1 <0>         0.3004
     21 C17        -6.5955   -4.1786   -2.4952 C.ar      1 <0>        -0.0294
     22 C18        -5.3770   -3.4908   -2.5708 C.ar      1 <0>        -0.0470
     23 S1         -4.1859   -4.7961   -2.7534 S.3       1 <0>        -0.1201
     24 C19        -5.3241   -6.1715   -2.7303 C.2       1 <0>         0.5379
     25 O1         -5.0838   -7.3613   -2.8206 O.2       1 <0>        -0.4760
     26 N2         -6.5153   -5.5606   -2.5757 N.am      1 <0>        -0.6195
     27 H4         -7.3256   -6.0921   -2.5325 H         1 <0>         0.4154
     28 O2         -8.9709   -3.9909   -2.2760 O.3       1 <0>        -0.6867
     29 O3         -4.1222   -0.1050   -3.0622 O.3       1 <0>        -0.5547
     30 H5          0.7303    2.1299    0.1226 H         1 <0>         0.0802
     31 H6         -0.8144    1.9986   -0.7520 H         1 <0>         0.0625
     32 H7         -0.7877    1.9090    1.0255 H         1 <0>         0.0731
     33 H8          0.0798   -0.4508   -2.0727 H         1 <0>         0.0554
     34 H9          1.5852    0.2405   -1.3926 H         1 <0>         0.0930
     35 H10         0.7686   -2.5618   -1.4516 H         1 <0>         0.0734
     36 H11         2.2740   -1.8705   -0.7715 H         1 <0>         0.0828
     37 H12         2.1792    1.0355    1.4276 H         1 <0>         0.0621
     38 H13         2.6813   -0.5331    2.1025 H         1 <0>         0.0648
     39 H14         2.6759   -0.2832    0.3402 H         1 <0>         0.0651
     40 H15        -0.9776   -0.8402    2.4988 H         1 <0>         0.0596
     41 H16         0.5929   -0.8515    3.3364 H         1 <0>         0.0675
     42 H17        -0.1071    0.6870    2.7784 H         1 <0>         0.0639
     43 H18        -1.1288   -2.8810   -0.3215 H         1 <0>         0.0927
     44 H19        -1.3939   -2.4529    1.3970 H         1 <0>         0.1016
     45 H20        -2.1244    0.2026   -1.6114 H         1 <0>         0.4255
     46 H21        -3.1804   -2.4217   -0.8257 H         1 <0>         0.1399
     47 H22        -3.9575   -0.8518   -0.5093 H         1 <0>         0.1353
     48 H23        -6.3933   -0.2912   -2.3049 H         1 <0>         0.1129
     49 H24        -8.5701   -1.4319   -2.1745 H         1 <0>         0.1174
     50 H25        -4.6874    0.4448   -2.5024 H         1 <0>         0.3834
     51 H26        -1.4051   -1.2506   -1.9043 H         1 <0>         0.4227
@<TRIPOS>BOND
     1    1    2 1
     2    1   30 1
     3    1   31 1
     4    1   32 1
     5    2    7 1
     6    2   11 1
     7    2    3 1
     8    3    4 1
     9    3   33 1
    10    3   34 1
    11    4    5 1
    12    4   35 1
    13    4   36 1
    14    5    6 1
    15    5    7 1
    16    5   10 1
    17    7    8 1
    18    7    9 1
    19    8   37 1
    20    8   38 1
    21    8   39 1
    22    9   40 1
    23    9   41 1
    24    9   42 1
    25   10   11 1
    26   10   43 1
    27   10   44 1
    28   11   12 1
    29   11   13 1
    30   13   14 1
    31   13   45 1
    32   13   51 1
    33   14   15 1
    34   14   46 1
    35   14   47 1
    36   15   16 1
    37   15   17 1
    38   15   29 1
    39   17   22 ar
    40   17   18 ar
    41   18   19 ar
    42   18   48 1
    43   19   20 ar
    44   19   49 1
    45   20   21 ar
    46   20   28 1
    47   21   26 1
    48   21   22 ar
    49   22   23 1
    50   23   24 1
    51   24   25 2
    52   24   26 am
    53   26   27 1
    54   29   50 1
@<TRIPOS>MOLECULE
CHEMBL1094323
   45    48     0     0     0
SMALL
USER_CHARGES

@<TRIPOS>ATOM
      1 C1         -0.0167    1.3768    0.0096 C.ar      1 <0>        -0.1077
      2 C2          1.1719    2.0830    0.0021 C.ar      1 <0>        -0.1067
      3 C3          2.3756    1.4061   -0.0130 C.ar      1 <0>        -0.0956
      4 C4          2.3964    0.0213   -0.0206 C.ar      1 <0>        -0.1029
      5 C5          1.2082   -0.6847   -0.0132 C.ar      1 <0>        -0.1051
      6 C6          0.0021   -0.0041    0.0020 C.ar      1 <0>        -0.0964
      7 C7          1.4958   -2.1708   -0.0240 C.3       1 <0>        -0.0941
      8 C8          2.9656   -2.2944   -0.4788 C.3       1 <0>         0.0218
      9 C9          3.5639   -0.9420   -0.0368 C.3       1 <0>        -0.0936
     10 N1          3.6323   -3.4095    0.2068 N.4       1 <0>        -0.4991
     11 C10         4.9883   -3.5758   -0.3331 C.3       1 <0>        -0.0483
     12 C11         5.6827   -4.7371    0.3810 C.3       1 <0>         0.1620
     13 H1          5.1138   -5.6533    0.2228 H         1 <0>         0.1156
     14 C12         7.0738   -4.9077   -0.1729 C.ar      1 <0>        -0.2626
     15 C13         8.1371   -4.3223    0.4538 C.ar      1 <0>        -0.0409
     16 C14         9.4229   -4.4718   -0.0461 C.ar      1 <0>        -0.2645
     17 C15         9.6523   -5.2163   -1.1882 C.ar      1 <0>         0.2699
     18 C16         8.5800   -5.8231   -1.8436 C.ar      1 <0>         0.0642
     19 C17         7.2805   -5.6710   -1.3274 C.ar      1 <0>        -0.0667
     20 C18         6.1624   -6.3153   -2.0192 C.2       1 <0>        -0.0488
     21 C19         6.4223   -7.0425   -3.1336 C.2       1 <0>        -0.2050
     22 C20         7.7457   -7.1694   -3.6073 C.2       1 <0>         0.5122
     23 O1          7.9573   -7.8282   -4.6108 O.2       1 <0>        -0.5713
     24 N2          8.7775   -6.5717   -2.9857 N.am      1 <0>        -0.5937
     25 H2          9.6749   -6.6783   -3.3384 H         1 <0>         0.4201
     26 O2         10.9158   -5.3561   -1.6706 O.3       1 <0>        -0.6864
     27 O3          5.7581   -4.4589    1.7806 O.3       1 <0>        -0.5572
     28 H3         -0.9588    1.9045    0.0259 H         1 <0>         0.1322
     29 H4          1.1591    3.1629    0.0076 H         1 <0>         0.1325
     30 H5          3.3036    1.9584   -0.0192 H         1 <0>         0.1280
     31 H6         -0.9268   -0.5550    0.0083 H         1 <0>         0.1269
     32 H7          1.3730   -2.5871    0.9758 H         1 <0>         0.0997
     33 H8          0.8377   -2.6782   -0.7293 H         1 <0>         0.1055
     34 H9          3.0279   -2.4106   -1.5608 H         1 <0>         0.1540
     35 H10         4.3178   -0.6106   -0.7508 H         1 <0>         0.1064
     36 H11         3.9973   -1.0278    0.9596 H         1 <0>         0.0999
     37 H12         3.6855   -3.2130    1.1951 H         1 <0>         0.4281
     38 H13         4.9308   -3.7880   -1.4007 H         1 <0>         0.1414
     39 H14         5.5573   -2.6596   -0.1749 H         1 <0>         0.1357
     40 H15         7.9754   -3.7371    1.3470 H         1 <0>         0.0997
     41 H16        10.2522   -4.0019    0.4616 H         1 <0>         0.1112
     42 H17         5.1527   -6.2137   -1.6497 H         1 <0>         0.1235
     43 H18         5.6135   -7.5268   -3.6607 H         1 <0>         0.1442
     44 H19         6.2515   -3.6556    1.9960 H         1 <0>         0.3837
     45 H20         3.1056   -4.2575    0.0604 H         1 <0>         0.4282
@<TRIPOS>BOND
     1    1    6 ar
     2    1    2 ar
     3    1   28 1
     4    2    3 ar
     5    2   29 1
     6    3    4 ar
     7    3   30 1
     8    4    9 1
     9    4    5 ar
    10    5    6 ar
    11    5    7 1
    12    6   31 1
    13    7    8 1
    14    7   32 1
    15    7   33 1
    16    8    9 1
    17    8   10 1
    18    8   34 1
    19    9   35 1
    20    9   36 1
    21   10   11 1
    22   10   37 1
    23   10   45 1
    24   11   12 1
    25   11   38 1
    26   11   39 1
    27   12   13 1
    28   12   14 1
    29   12   27 1
    30   14   19 ar
    31   14   15 ar
    32   15   16 ar
    33   15   40 1
    34   16   17 ar
    35   16   41 1
    36   17   18 ar
    37   17   26 1
    38   18   24 1
    39   18   19 ar
    40   19   20 1
    41   20   21 2
    42   20   42 1
    43   21   22 1
    44   21   43 1
    45   22   23 2
    46   22   24 am
    47   24   25 1
    48   27   44 1
@<TRIPOS>MOLECULE
CHEMBL290024
   52    55     0     0     0
SMALL
USER_CHARGES

@<TRIPOS>ATOM
      1 C1         -0.5056    0.6840   -0.5231 C.ar      1 <0>        -0.1232
      2 C2          0.6696    1.4010   -0.6581 C.ar      1 <0>        -0.1155
      3 C3          1.8830    0.7439   -0.6819 C.ar      1 <0>        -0.1109
      4 C4          1.9228   -0.6448   -0.5697 C.ar      1 <0>        -0.0340
      5 C5          0.7354   -1.3620   -0.4339 C.ar      1 <0>        -0.1208
      6 C6         -0.4722   -0.6943   -0.4113 C.ar      1 <0>        -0.1128
      7 C7          3.2235   -1.3566   -0.5952 C.ar      1 <0>        -0.1274
      8 C8          4.1486   -1.0880   -1.6011 C.ar      1 <0>        -0.0578
      9 C9          5.3580   -1.7526   -1.6204 C.ar      1 <0>        -0.1771
     10 C10         5.6567   -2.6867   -0.6436 C.ar      1 <0>        -0.0675
     11 C11         4.7477   -2.9620    0.3594 C.ar      1 <0>        -0.1996
     12 C12         3.5299   -2.2974    0.3950 C.ar      1 <0>         0.2306
     13 N1          2.6128   -2.5699    1.4097 N.pl3     1 <0>        -0.7395
     14 C13         2.9366   -3.5551    2.4445 C.3       1 <0>         0.0970
     15 C14         1.7699   -3.6635    3.4284 C.3       1 <0>         0.1031
     16 C15         2.1563   -4.5979    4.5766 C.3       1 <0>         0.0456
     17 O1          1.1136   -4.6084    5.5537 O.3       1 <0>        -0.2177
     18 N2          1.3735   -5.4472    6.6645 N.2       1 <0>        -0.3428
     19 C16         0.5153   -5.5428    7.6087 C.2       1 <0>         0.2012
     20 C17         0.7313   -6.5306    8.7261 C.3       1 <0>        -0.1109
     21 C18         1.9507   -6.3231    9.6266 C.3       1 <0>        -0.1578
     22 C19         1.9330   -7.4710    8.6152 C.3       1 <0>        -0.1612
     23 C20        -0.7115   -4.6676    7.6033 C.3       1 <0>        -0.1569
     24 C21        -0.5141   -3.1762    7.3247 C.3       1 <0>        -0.1521
     25 C22        -0.8593   -3.6514    8.7375 C.3       1 <0>        -0.1635
     26 O2          0.6244   -4.1870    2.7532 O.3       1 <0>        -0.5467
     27 H1         -1.4526    1.2027   -0.5004 H         1 <0>         0.1219
     28 H2          0.6375    2.4770   -0.7453 H         1 <0>         0.1233
     29 H3          2.7999    1.3047   -0.7877 H         1 <0>         0.1230
     30 H4          0.7603   -2.4382   -0.3469 H         1 <0>         0.1238
     31 H5         -1.3929   -1.2490   -0.3061 H         1 <0>         0.1235
     32 H6          3.9196   -0.3605   -2.3658 H         1 <0>         0.1224
     33 H7          6.0743   -1.5432   -2.4011 H         1 <0>         0.1207
     34 H8          6.6049   -3.2031   -0.6660 H         1 <0>         0.1214
     35 H9          4.9864   -3.6922    1.1185 H         1 <0>         0.1208
     36 H10         1.7605   -2.1071    1.4303 H         1 <0>         0.4071
     37 H11         3.1116   -4.5256    1.9801 H         1 <0>         0.0686
     38 H12         3.8336   -3.2405    2.9778 H         1 <0>         0.0727
     39 H13         1.5372   -2.6758    3.8263 H         1 <0>         0.1119
     40 H14         2.3026   -5.6067    4.1906 H         1 <0>         0.0623
     41 H15         3.0806   -4.2468    5.0354 H         1 <0>         0.0660
     42 H16        -0.1745   -6.9237    9.1877 H         1 <0>         0.1318
     43 H17         2.5967   -5.4721    9.4108 H         1 <0>         0.0959
     44 H18         1.8473   -6.5796   10.6809 H         1 <0>         0.1047
     45 H19         1.8180   -8.4827    9.0042 H         1 <0>         0.1022
     46 H20         2.5674   -7.3752    7.7340 H         1 <0>         0.1047
     47 H21        -1.6206   -5.1347    7.2244 H         1 <0>         0.1217
     48 H22         0.5031   -2.8280    7.1453 H         1 <0>         0.0933
     49 H23        -1.2934   -2.6618    6.7623 H         1 <0>         0.0992
     50 H24        -1.8657   -3.4496    9.1045 H         1 <0>         0.1010
     51 H25        -0.0692   -3.6158    9.4875 H         1 <0>         0.0970
     52 H26         0.7595   -5.0657    2.3728 H         1 <0>         0.3771
@<TRIPOS>BOND
     1    1    6 ar
     2    1    2 ar
     3    1   27 1
     4    2    3 ar
     5    2   28 1
     6    3    4 ar
     7    3   29 1
     8    4    5 ar
     9    4    7 1
    10    5    6 ar
    11    5   30 1
    12    6   31 1
    13    7   12 ar
    14    7    8 ar
    15    8    9 ar
    16    8   32 1
    17    9   10 ar
    18    9   33 1
    19   10   11 ar
    20   10   34 1
    21   11   12 ar
    22   11   35 1
    23   12   13 1
    24   13   14 1
    25   13   36 1
    26   14   15 1
    27   14   37 1
    28   14   38 1
    29   15   16 1
    30   15   26 1
    31   15   39 1
    32   16   17 1
    33   16   40 1
    34   16   41 1
    35   17   18 1
    36   18   19 2
    37   19   20 1
    38   19   23 1
    39   20   22 1
    40   20   21 1
    41   20   42 1
    42   21   22 1
    43   21   43 1
    44   21   44 1
    45   22   45 1
    46   22   46 1
    47   23   25 1
    48   23   24 1
    49   23   47 1
    50   24   25 1
    51   24   48 1
    52   24   49 1
    53   25   50 1
    54   25   51 1
    55   26   52 1
@<TRIPOS>MOLECULE
CHEMBL290024
   52    55     0     0     0
SMALL
USER_CHARGES

@<TRIPOS>ATOM
      1 C1         -0.4044    0.6917   -0.6161 C.ar      1 <0>        -0.1225
      2 C2          0.7748    1.4029   -0.7461 C.ar      1 <0>        -0.1143
      3 C3          1.9855    0.7405   -0.7587 C.ar      1 <0>        -0.1101
      4 C4          2.0184   -0.6479   -0.6403 C.ar      1 <0>        -0.0316
      5 C5          0.8270   -1.3593   -0.5096 C.ar      1 <0>        -0.1232
      6 C6         -0.3778   -0.6863   -0.4982 C.ar      1 <0>        -0.1131
      7 C7          3.3161   -1.3654   -0.6537 C.ar      1 <0>        -0.1278
      8 C8          4.2493   -1.1053   -1.6544 C.ar      1 <0>        -0.0578
      9 C9          5.4559   -1.7752   -1.6625 C.ar      1 <0>        -0.1771
     10 C10         5.7437   -2.7064   -0.6796 C.ar      1 <0>        -0.0674
     11 C11         4.8267   -2.9734    0.3182 C.ar      1 <0>        -0.1997
     12 C12         3.6115   -2.3033    0.3425 C.ar      1 <0>         0.2308
     13 N1          2.6863   -2.5674    1.3521 N.pl3     1 <0>        -0.7390
     14 C13         2.9986   -3.5496    2.3933 C.3       1 <0>         0.0964
     15 C14         1.8247   -3.6486    3.3695 C.3       1 <0>         0.1030
     16 C15         2.1509   -4.6744    4.4569 C.3       1 <0>         0.0456
     17 O1          1.0115   -4.8526    5.3008 O.3       1 <0>        -0.2178
     18 N2          1.2095   -5.7872    6.3459 N.2       1 <0>        -0.3429
     19 C16         0.2628   -6.0351    7.1703 C.2       1 <0>         0.2013
     20 C17         0.4273   -7.1211    8.2022 C.3       1 <0>        -0.1109
     21 C18         1.5231   -6.9361    9.2539 C.3       1 <0>        -0.1577
     22 C19         1.6994   -7.9689    8.1389 C.3       1 <0>        -0.1614
     23 C20        -1.0166   -5.2412    7.1094 C.3       1 <0>        -0.1592
     24 C21        -0.8994   -3.7194    7.0041 C.3       1 <0>        -0.1482
     25 C22        -1.3608   -4.3624    8.3136 C.3       1 <0>        -0.1643
     26 O2          1.5967   -2.3727    3.9713 O.3       1 <0>        -0.5463
     27 H1         -1.3493    1.2146   -0.6022 H         1 <0>         0.1221
     28 H2          0.7481    2.4787   -0.8382 H         1 <0>         0.1235
     29 H3          2.9056    1.2968   -0.8606 H         1 <0>         0.1231
     30 H4          0.8466   -2.4352   -0.4178 H         1 <0>         0.1213
     31 H5         -1.3016   -1.2365   -0.3970 H         1 <0>         0.1229
     32 H6          4.0287   -0.3800   -2.4237 H         1 <0>         0.1224
     33 H7          6.1784   -1.5723   -2.4391 H         1 <0>         0.1207
     34 H8          6.6898   -3.2270   -0.6932 H         1 <0>         0.1214
     35 H9          5.0569   -3.7013    1.0821 H         1 <0>         0.1209
     36 H10         1.8360   -2.1009    1.3648 H         1 <0>         0.4078
     37 H11         3.1726   -4.5228    1.9343 H         1 <0>         0.0740
     38 H12         3.8933   -3.2365    2.9314 H         1 <0>         0.0669
     39 H13         0.9300   -3.9617    2.8314 H         1 <0>         0.1126
     40 H14         2.4116   -5.6255    3.9927 H         1 <0>         0.0674
     41 H15         2.9917   -4.3180    5.0521 H         1 <0>         0.0607
     42 H16        -0.4922   -7.6159    8.5147 H         1 <0>         0.1317
     43 H17         2.1250   -6.0290    9.1994 H         1 <0>         0.0958
     44 H18         1.3245   -7.3091   10.2586 H         1 <0>         0.1046
     45 H19         1.6167   -9.0214    8.4101 H         1 <0>         0.1021
     46 H20         2.4173   -7.7412    7.3509 H         1 <0>         0.1047
     47 H21        -1.8425   -5.7202    6.5835 H         1 <0>         0.1207
     48 H22         0.1032   -3.2924    6.9790 H         1 <0>         0.0956
     49 H23        -1.6482   -3.1968    6.4088 H         1 <0>         0.0986
     50 H24        -2.4131   -4.2629    8.5797 H         1 <0>         0.1004
     51 H25        -0.6617   -4.3584    9.1499 H         1 <0>         0.0966
     52 H26         2.3529   -2.0313    4.4680 H         1 <0>         0.3767
@<TRIPOS>BOND
     1    1    6 ar
     2    1    2 ar
     3    1   27 1
     4    2    3 ar
     5    2   28 1
     6    3    4 ar
     7    3   29 1
     8    4    5 ar
     9    4    7 1
    10    5    6 ar
    11    5   30 1
    12    6   31 1
    13    7   12 ar
    14    7    8 ar
    15    8    9 ar
    16    8   32 1
    17    9   10 ar
    18    9   33 1
    19   10   11 ar
    20   10   34 1
    21   11   12 ar
    22   11   35 1
    23   12   13 1
    24   13   14 1
    25   13   36 1
    26   14   15 1
    27   14   37 1
    28   14   38 1
    29   15   16 1
    30   15   26 1
    31   15   39 1
    32   16   17 1
    33   16   40 1
    34   16   41 1
    35   17   18 1
    36   18   19 2
    37   19   20 1
    38   19   23 1
    39   20   22 1
    40   20   21 1
    41   20   42 1
    42   21   22 1
    43   21   43 1
    44   21   44 1
    45   22   45 1
    46   22   46 1
    47   23   25 1
    48   23   24 1
    49   23   47 1
    50   24   25 1
    51   24   48 1
    52   24   49 1
    53   25   50 1
    54   25   51 1
    55   26   52 1
@<TRIPOS>MOLECULE
CHEMBL1221803
   42    44     0     0     0
SMALL
USER_CHARGES

@<TRIPOS>ATOM
      1 C1         -0.0167    1.3784    0.0096 C.ar      1 <0>        -0.1446
      2 C2          1.1698    2.0883    0.0021 C.ar      1 <0>        -0.0783
      3 C3          2.3773    1.4175   -0.0134 C.ar      1 <0>        -0.1428
      4 C4          2.3989    0.0304   -0.0210 C.ar      1 <0>         0.1155
      5 C5          1.2070   -0.6796   -0.0130 C.ar      1 <0>        -0.2044
      6 C6          0.0021   -0.0041    0.0020 C.ar      1 <0>        -0.0796
      7 O1          3.5855   -0.6319   -0.0368 O.3       1 <0>        -0.3270
      8 C7          3.5315   -2.0598   -0.0438 C.3       1 <0>         0.0264
      9 C8          4.9536   -2.6239   -0.0615 C.3       1 <0>        -0.0003
     10 N1          5.6374   -2.2671    1.1887 N.4       1 <0>        -0.5059
     11 C9          7.0028   -2.8087    1.1717 C.3       1 <0>        -0.0462
     12 C10         7.7151   -2.4370    2.4738 C.3       1 <0>         0.1624
     13 H1          7.1687   -2.8554    3.3191 H         1 <0>         0.1155
     14 C11         9.1159   -2.9926    2.4565 C.ar      1 <0>        -0.2342
     15 C12        10.1733   -2.1993    2.0458 C.ar      1 <0>        -0.0375
     16 C13        11.4514   -2.7302    2.0383 C.ar      1 <0>        -0.2396
     17 C14        11.6871   -4.0308    2.4316 C.ar      1 <0>         0.3005
     18 C15        10.6290   -4.8594    2.8539 C.ar      1 <0>        -0.0295
     19 C16         9.3498   -4.2876    2.8537 C.ar      1 <0>        -0.0473
     20 S1          8.3162   -5.6072    3.4423 S.3       1 <0>        -0.1206
     21 C17         9.5920   -6.8357    3.6677 C.2       1 <0>         0.5381
     22 O2          9.4852   -7.9814    4.0648 O.2       1 <0>        -0.4758
     23 N2         10.7013   -6.1784    3.2760 N.am      1 <0>        -0.6196
     24 H2         11.5602   -6.6283    3.3012 H         1 <0>         0.4155
     25 O3         12.9558   -4.5193    2.4110 O.3       1 <0>        -0.6860
     26 O4          7.7685   -1.0144    2.5983 O.3       1 <0>        -0.5539
     27 H3         -0.9596    1.9047    0.0260 H         1 <0>         0.1294
     28 H4          1.1525    3.1682    0.0080 H         1 <0>         0.1351
     29 H5          3.3038    1.9724   -0.0200 H         1 <0>         0.1338
     30 H6          1.2211   -1.7595   -0.0193 H         1 <0>         0.1277
     31 H7         -0.9260   -0.5563    0.0082 H         1 <0>         0.1296
     32 H8          3.0134   -2.4083    0.8497 H         1 <0>         0.0869
     33 H9          2.9951   -2.3988   -0.9302 H         1 <0>         0.1076
     34 H10         4.9129   -3.7090   -0.1564 H         1 <0>         0.1514
     35 H11         5.4999   -2.2055   -0.9067 H         1 <0>         0.1419
     36 H12         5.6751   -1.2626    1.2766 H         1 <0>         0.4353
     37 H13         6.9622   -3.8938    1.0768 H         1 <0>         0.1415
     38 H14         7.5492   -2.3902    0.3265 H         1 <0>         0.1374
     39 H15        10.0030   -1.1792    1.7349 H         1 <0>         0.1134
     40 H16        12.2792   -2.1148    1.7183 H         1 <0>         0.1176
     41 H17         8.2412   -0.5741    1.8787 H         1 <0>         0.3841
     42 H18         5.1317   -2.6544    1.9711 H         1 <0>         0.4260
@<TRIPOS>BOND
     1    1    6 ar
     2    1    2 ar
     3    1   27 1
     4    2    3 ar
     5    2   28 1
     6    3    4 ar
     7    3   29 1
     8    4    5 ar
     9    4    7 1
    10    5    6 ar
    11    5   30 1
    12    6   31 1
    13    7    8 1
    14    8    9 1
    15    8   32 1
    16    8   33 1
    17    9   10 1
    18    9   34 1
    19    9   35 1
    20   10   11 1
    21   10   36 1
    22   10   42 1
    23   11   12 1
    24   11   37 1
    25   11   38 1
    26   12   13 1
    27   12   14 1
    28   12   26 1
    29   14   19 ar
    30   14   15 ar
    31   15   16 ar
    32   15   39 1
    33   16   17 ar
    34   16   40 1
    35   17   18 ar
    36   17   25 1
    37   18   23 1
    38   18   19 ar
    39   19   20 1
    40   20   21 1
    41   21   22 2
    42   21   23 am
    43   23   24 1
    44   26   41 1
@<TRIPOS>MOLECULE
CHEMBL1221803
   41    43     0     0     0
SMALL
USER_CHARGES

@<TRIPOS>ATOM
      1 C1         -0.0167    1.3784    0.0096 C.ar      1 <0>        -0.1638
      2 C2          1.1698    2.0883    0.0021 C.ar      1 <0>        -0.0816
      3 C3          2.3773    1.4175   -0.0134 C.ar      1 <0>        -0.1542
      4 C4          2.3989    0.0304   -0.0210 C.ar      1 <0>         0.1366
      5 C5          1.2070   -0.6796   -0.0130 C.ar      1 <0>        -0.2102
      6 C6          0.0021   -0.0041    0.0020 C.ar      1 <0>        -0.0813
      7 O1          3.5855   -0.6319   -0.0368 O.3       1 <0>        -0.3141
      8 C7          3.5315   -2.0598   -0.0438 C.3       1 <0>         0.0606
      9 C8          4.9536   -2.6239   -0.0615 C.3       1 <0>         0.0609
     10 N1          5.6374   -2.2671    1.1887 N.3       1 <0>        -0.6845
     11 C9          7.0088   -2.7933    1.2073 C.3       1 <0>         0.0328
     12 C10         7.6873   -2.4023    2.5217 C.3       1 <0>         0.1758
     13 H1          7.1267   -2.8195    3.3582 H         1 <0>         0.1023
     14 C11         9.0942   -2.9421    2.5408 C.ar      1 <0>        -0.2013
     15 C12        10.1517   -2.1404    2.1469 C.ar      1 <0>        -0.0459
     16 C13        11.4355   -2.6568    2.1729 C.ar      1 <0>        -0.2447
     17 C14        11.6767   -3.9512    2.5830 C.ar      1 <0>         0.2914
     18 C15        10.6187   -4.7881    2.9888 C.ar      1 <0>        -0.0414
     19 C16         9.3335   -4.2308    2.9548 C.ar      1 <0>        -0.0470
     20 S1          8.3017   -5.5569    3.5317 S.3       1 <0>        -0.0969
     21 C17         9.5857   -6.7689    3.7967 C.2       1 <0>         0.5256
     22 O2          9.4827   -7.9122    4.2014 O.2       1 <0>        -0.4947
     23 N2         10.6961   -6.1024    3.4242 N.am      1 <0>        -0.6190
     24 H2         11.5593   -6.5423    3.4727 H         1 <0>         0.4087
     25 O3         12.9510   -4.4254    2.5953 O.3       1 <0>        -0.7147
     26 O4          7.7220   -0.9782    2.6346 O.3       1 <0>        -0.5568
     27 H3         -0.9596    1.9047    0.0260 H         1 <0>         0.1213
     28 H4          1.1525    3.1682    0.0080 H         1 <0>         0.1274
     29 H5          3.3038    1.9724   -0.0200 H         1 <0>         0.1302
     30 H6          1.2211   -1.7595   -0.0193 H         1 <0>         0.1275
     31 H7         -0.9260   -0.5563    0.0082 H         1 <0>         0.1227
     32 H8          3.0134   -2.4083    0.8497 H         1 <0>         0.0738
     33 H9          2.9951   -2.3988   -0.9302 H         1 <0>         0.0650
     34 H10         4.9129   -3.7090   -0.1564 H         1 <0>         0.0925
     35 H11         5.4999   -2.2055   -0.9067 H         1 <0>         0.0393
     36 H12         5.6314   -1.2683    1.3318 H         1 <0>         0.3527
     37 H13         6.9824   -3.8795    1.1212 H         1 <0>         0.0825
     38 H14         7.5695   -2.3760    0.3708 H         1 <0>         0.0341
     39 H15         9.9772   -1.1250    1.8232 H         1 <0>         0.1107
     40 H16        12.2634   -2.0348    1.8661 H         1 <0>         0.1106
     41 H17         8.2059   -0.5388    1.9220 H         1 <0>         0.3672
@<TRIPOS>BOND
     1    1    6 ar
     2    1    2 ar
     3    1   27 1
     4    2    3 ar
     5    2   28 1
     6    3    4 ar
     7    3   29 1
     8    4    5 ar
     9    4    7 1
    10    5    6 ar
    11    5   30 1
    12    6   31 1
    13    7    8 1
    14    8    9 1
    15    8   32 1
    16    8   33 1
    17    9   10 1
    18    9   34 1
    19    9   35 1
    20   10   11 1
    21   10   36 1
    22   11   12 1
    23   11   37 1
    24   11   38 1
    25   12   13 1
    26   12   14 1
    27   12   26 1
    28   14   19 ar
    29   14   15 ar
    30   15   16 ar
    31   15   39 1
    32   16   17 ar
    33   16   40 1
    34   17   18 ar
    35   17   25 1
    36   18   23 1
    37   18   19 ar
    38   19   20 1
    39   20   21 1
    40   21   22 2
    41   21   23 am
    42   23   24 1
    43   26   41 1
@<TRIPOS>MOLECULE
CHEMBL32470
   62    64     0     0     0
SMALL
USER_CHARGES

@<TRIPOS>ATOM
      1 C1         -0.0187    1.5258    0.0104 C.3       1 <0>        -0.1969
      2 C2          0.0021   -0.0041    0.0020 C.3       1 <0>        -0.0073
      3 H1         -1.0205   -0.3814    0.0098 H         1 <0>         0.1496
      4 C3          0.7182   -0.4975   -1.2568 C.3       1 <0>         0.1411
      5 H2          0.8116   -1.5829   -1.2198 H         1 <0>         0.1306
      6 C4         -0.0771   -0.1029   -2.4745 C.ar      1 <0>        -0.1483
      7 C5          0.0941    1.1497   -3.0345 C.ar      1 <0>        -0.0884
      8 C6         -0.6341    1.5140   -4.1505 C.ar      1 <0>        -0.1402
      9 C7         -1.5374    0.6217   -4.7096 C.ar      1 <0>         0.1286
     10 C8         -1.7070   -0.6346   -4.1460 C.ar      1 <0>        -0.1409
     11 C9         -0.9726   -0.9960   -3.0331 C.ar      1 <0>        -0.0835
     12 O1         -2.2553    0.9780   -5.8071 O.3       1 <0>        -0.4970
     13 O2          2.0188    0.0904   -1.3262 O.3       1 <0>        -0.5469
     14 N1          0.7126   -0.4907    1.1921 N.4       1 <0>        -0.5032
     15 C10        -0.0398   -0.1189    2.3978 C.3       1 <0>        -0.0141
     16 C11         0.7001   -0.6257    3.6373 C.3       1 <0>        -0.0766
     17 C12        -0.0717   -0.2443    4.8741 C.ar      1 <0>        -0.2042
     18 C13         0.1772    0.9649    5.4971 C.ar      1 <0>        -0.0551
     19 C14        -0.5283    1.3176    6.6307 C.ar      1 <0>        -0.1923
     20 C15        -1.4890    0.4561    7.1451 C.ar      1 <0>         0.2677
     21 C16        -1.7366   -0.7578    6.5168 C.ar      1 <0>        -0.2122
     22 C17        -1.0314   -1.1017    5.3802 C.ar      1 <0>        -0.0564
     23 N2         -2.2041    0.8095    8.2917 N.pl3     1 <0>        -0.5718
     24 C18        -3.2169   -0.1003    8.8327 C.3       1 <0>         0.1623
     25 C19        -2.5745   -1.0332    9.8268 C.ar      1 <0>        -0.1018
     26 C20        -2.0449   -2.2374    9.4023 C.ar      1 <0>        -0.1075
     27 C21        -1.4556   -3.0931   10.3141 C.ar      1 <0>        -0.1240
     28 C22        -1.3955   -2.7444   11.6504 C.ar      1 <0>        -0.1213
     29 C23        -1.9243   -1.5397   12.0747 C.ar      1 <0>        -0.1200
     30 C24        -2.5097   -0.6821   11.1622 C.ar      1 <0>        -0.1036
     31 C25        -1.9413    2.0899    8.9533 C.3       1 <0>         0.0455
     32 C26        -2.8409    3.1498    8.3716 C.2       1 <0>         0.4776
     33 O3         -3.6285    2.8623    7.4864 O.co2     1 <0>        -0.6821
     34 O4         -2.7810    4.2948    8.7861 O.co2     1 <0>        -0.6952
     35 H3          1.0039    1.9031    0.0027 H         1 <0>         0.0827
     36 H4         -0.5459    1.8868   -0.8726 H         1 <0>         0.1097
     37 H5         -0.5289    1.8773    0.9072 H         1 <0>         0.0955
     38 H6          0.7975    1.8439   -2.5989 H         1 <0>         0.1280
     39 H7         -0.5005    2.4927   -4.5871 H         1 <0>         0.1374
     40 H8         -2.4096   -1.3309   -4.5794 H         1 <0>         0.1374
     41 H9         -1.1011   -1.9755   -2.5967 H         1 <0>         0.1323
     42 H10        -1.8251    0.7616   -6.6457 H         1 <0>         0.3999
     43 H11         2.0123    1.0567   -1.3619 H         1 <0>         0.3865
     44 H12         0.7982   -1.4950    1.1455 H         1 <0>         0.4257
     45 H13        -0.1324    0.9660    2.4481 H         1 <0>         0.1336
     46 H14        -1.0328   -0.5668    2.3589 H         1 <0>         0.1318
     47 H15         0.7927   -1.7106    3.5869 H         1 <0>         0.0838
     48 H16         1.6931   -0.1778    3.6761 H         1 <0>         0.0842
     49 H17         0.9245    1.6341    5.0969 H         1 <0>         0.1131
     50 H18        -0.3331    2.2620    7.1170 H         1 <0>         0.1242
     51 H19        -2.4825   -1.4300    6.9143 H         1 <0>         0.1220
     52 H20        -1.2264   -2.0434    4.8887 H         1 <0>         0.1122
     53 H21        -3.9968    0.4777    9.3284 H         1 <0>         0.0872
     54 H22        -3.6551   -0.6805    8.0206 H         1 <0>         0.0815
     55 H23        -2.0919   -2.5099    8.3583 H         1 <0>         0.1206
     56 H24        -1.0426   -4.0343    9.9825 H         1 <0>         0.1189
     57 H25        -0.9358   -3.4132   12.3629 H         1 <0>         0.1194
     58 H26        -1.8776   -1.2674   13.1188 H         1 <0>         0.1216
     59 H27        -2.9195    0.2608   11.4932 H         1 <0>         0.1224
     60 H28        -2.1365    1.9938   10.0213 H         1 <0>         0.0743
     61 H29        -0.8999    2.3720    8.7982 H         1 <0>         0.0743
     62 H30         1.6317   -0.0761    1.2281 H         1 <0>         0.4275
@<TRIPOS>BOND
     1    1    2 1
     2    1   35 1
     3    1   36 1
     4    1   37 1
     5    2    3 1
     6    2    4 1
     7    2   14 1
     8    4    5 1
     9    4    6 1
    10    4   13 1
    11    6   11 ar
    12    6    7 ar
    13    7    8 ar
    14    7   38 1
    15    8    9 ar
    16    8   39 1
    17    9   10 ar
    18    9   12 1
    19   10   11 ar
    20   10   40 1
    21   11   41 1
    22   12   42 1
    23   13   43 1
    24   14   15 1
    25   14   44 1
    26   14   62 1
    27   15   16 1
    28   15   45 1
    29   15   46 1
    30   16   17 1
    31   16   47 1
    32   16   48 1
    33   17   22 ar
    34   17   18 ar
    35   18   19 ar
    36   18   49 1
    37   19   20 ar
    38   19   50 1
    39   20   21 ar
    40   20   23 1
    41   21   22 ar
    42   21   51 1
    43   22   52 1
    44   23   24 1
    45   23   31 1
    46   24   25 1
    47   24   53 1
    48   24   54 1
    49   25   30 ar
    50   25   26 ar
    51   26   27 ar
    52   26   55 1
    53   27   28 ar
    54   27   56 1
    55   28   29 ar
    56   28   57 1
    57   29   30 ar
    58   29   58 1
    59   30   59 1
    60   31   32 1
    61   31   60 1
    62   31   61 1
    63   32   33 2
    64   32   34 1
@<TRIPOS>MOLECULE
CHEMBL185660
   69    72     0     0     0
SMALL
USER_CHARGES

@<TRIPOS>ATOM
      1 C1         -0.0187    1.5258    0.0104 C.3       1 <0>        -0.1834
      2 C2          0.0021   -0.0041    0.0020 C.3       1 <0>         0.0260
      3 H1          0.5293   -0.3651    0.8851 H         1 <0>         0.1396
      4 C3          0.7182   -0.4975   -1.2568 C.3       1 <0>        -0.0569
      5 C4          0.8473   -1.9981   -1.2057 C.2       1 <0>        -0.2263
      6 C5          1.9041   -2.6937   -0.7564 C.2       1 <0>         0.1088
      7 N1          1.6592   -4.0349   -0.8646 N.pl3     1 <0>        -0.5711
      8 H2          2.2753   -4.7370   -0.6031 H         1 <0>         0.4275
      9 C6          0.4058   -4.2399   -1.4002 C.ar      1 <0>         0.1197
     10 C7         -0.1590   -2.9739   -1.6310 C.ar      1 <0>        -0.1018
     11 C8         -1.4436   -2.8707   -2.1710 C.ar      1 <0>        -0.0845
     12 C9         -2.1488   -4.0022   -2.4700 C.ar      1 <0>        -0.1080
     13 C10        -1.6006   -5.2565   -2.2421 C.ar      1 <0>        -0.1030
     14 C11        -0.3282   -5.3834   -1.7167 C.ar      1 <0>         0.0721
     15 O1          0.1992   -6.6167   -1.4948 O.3       1 <0>        -0.6617
     16 S1         -0.1065   -7.1817   -0.1151 S.o2      1 <0>         2.5819
     17 O2          0.7331   -8.3219    0.0040 O.2       1 <0>        -0.9192
     18 O3          0.0398   -6.0788    0.7690 O.2       1 <0>        -0.9515
     19 C12        -1.8455   -7.6918   -0.1951 C.3       1 <0>        -0.6084
     20 C13        -2.0176   -8.7470   -1.2896 C.3       1 <0>        -0.1459
     21 C14        -2.2665   -8.2815    1.1525 C.3       1 <0>        -0.1440
     22 N2         -1.3761   -0.5125    0.0124 N.4       1 <0>        -0.5060
     23 C15        -2.0260   -0.1396    1.2760 C.3       1 <0>        -0.0471
     24 C16        -3.4614   -0.6692    1.2868 C.3       1 <0>         0.1417
     25 H3         -3.4489   -1.7549    1.1913 H         1 <0>         0.1241
     26 C17        -4.1282   -0.2867    2.5830 C.ar      1 <0>        -0.1017
     27 C18        -4.7304    0.9519    2.7108 C.ar      1 <0>        -0.2177
     28 C19        -5.3429    1.3070    3.8984 C.ar      1 <0>        -0.0568
     29 C20        -5.3556    0.4252    4.9614 C.ar      1 <0>        -0.2494
     30 C21        -4.7522   -0.8195    4.8364 C.ar      1 <0>         0.2867
     31 C22        -4.1422   -1.1752    3.6398 C.ar      1 <0>        -0.1663
     32 N3         -4.7632   -1.7137    5.9093 N.2       1 <0>        -1.0866
     33 S2         -5.4963   -1.2903    7.3326 S.o2      1 <0>         2.6404
     34 O4         -4.7381   -0.2187    7.8767 O.2       1 <0>        -1.0183
     35 O5         -6.8855   -1.1771    7.0559 O.2       1 <0>        -1.0165
     36 C23        -5.3120   -2.6498    8.4381 C.2       1 <0>        -0.6798
     37 C24        -4.3177   -2.9005    9.3246 C.2       1 <0>        -0.0389
     38 C25        -4.3826   -4.0436   10.0991 C.2       1 <0>        -0.1835
     39 C26        -5.4385   -4.8801    9.9491 C.2       1 <0>        -0.1610
     40 S3         -6.3904   -4.0507    8.6870 S.3       1 <0>         0.1437
     41 O6         -4.1863   -0.1032    0.1931 O.3       1 <0>        -0.5539
     42 H4          1.0039    1.9031    0.0027 H         1 <0>         0.1043
     43 H5         -0.5459    1.8868   -0.8726 H         1 <0>         0.0816
     44 H6         -0.5289    1.8773    0.9072 H         1 <0>         0.0852
     45 H7          0.1430   -0.2121   -2.1375 H         1 <0>         0.0958
     46 H8          1.7103   -0.0491   -1.3098 H         1 <0>         0.1186
     47 H9          2.8129   -2.2587   -0.3676 H         1 <0>         0.1852
     48 H10        -1.8783   -1.8987   -2.3513 H         1 <0>         0.1315
     49 H11        -3.1416   -3.9196   -2.8869 H         1 <0>         0.1496
     50 H12        -2.1705   -6.1415   -2.4837 H         1 <0>         0.1514
     51 H13        -2.4678   -6.8266   -0.4234 H         1 <0>         0.1395
     52 H14        -1.7176   -8.3269   -2.2496 H         1 <0>         0.0697
     53 H15        -1.3953   -9.6122   -1.0612 H         1 <0>         0.0800
     54 H16        -3.0625   -9.0535   -1.3377 H         1 <0>         0.0872
     55 H17        -2.1439   -7.5298    1.9322 H         1 <0>         0.0764
     56 H18        -3.3114   -8.5880    1.1044 H         1 <0>         0.0901
     57 H19        -1.6442   -9.1467    1.3808 H         1 <0>         0.0748
     58 H20        -1.8879   -0.1129   -0.7598 H         1 <0>         0.4228
     59 H21        -1.4732   -0.5714    2.1102 H         1 <0>         0.1446
     60 H22        -2.0386    0.9461    1.3715 H         1 <0>         0.1391
     61 H23        -4.7219    1.6433    1.8812 H         1 <0>         0.1009
     62 H24        -5.8115    2.2752    3.9951 H         1 <0>         0.1094
     63 H25        -5.8339    0.7034    5.8889 H         1 <0>         0.1022
     64 H26        -3.6756   -2.1439    3.5379 H         1 <0>         0.1154
     65 H27        -3.4871   -2.2174    9.4241 H         1 <0>         0.1426
     66 H28        -3.6033   -4.2670   10.8127 H         1 <0>         0.1385
     67 H29        -5.6509   -5.8061   10.4628 H         1 <0>         0.1907
     68 H30        -4.2382    0.8622    0.2132 H         1 <0>         0.3843
     69 H31        -1.3644   -1.5176   -0.0760 H         1 <0>         0.4256
@<TRIPOS>BOND
     1    1    2 1
     2    1   42 1
     3    1   43 1
     4    1   44 1
     5    2    3 1
     6    2    4 1
     7    2   22 1
     8    4    5 1
     9    4   45 1
    10    4   46 1
    11    5   10 1
    12    5    6 2
    13    6    7 1
    14    6   47 1
    15    7    8 1
    16    7    9 1
    17    9   14 ar
    18    9   10 ar
    19   10   11 ar
    20   11   12 ar
    21   11   48 1
    22   12   13 ar
    23   12   49 1
    24   13   14 ar
    25   13   50 1
    26   14   15 1
    27   15   16 1
    28   16   17 2
    29   16   18 2
    30   16   19 1
    31   19   20 1
    32   19   21 1
    33   19   51 1
    34   20   52 1
    35   20   53 1
    36   20   54 1
    37   21   55 1
    38   21   56 1
    39   21   57 1
    40   22   23 1
    41   22   58 1
    42   22   69 1
    43   23   24 1
    44   23   59 1
    45   23   60 1
    46   24   25 1
    47   24   26 1
    48   24   41 1
    49   26   31 ar
    50   26   27 ar
    51   27   28 ar
    52   27   61 1
    53   28   29 ar
    54   28   62 1
    55   29   30 ar
    56   29   63 1
    57   30   31 ar
    58   30   32 1
    59   31   64 1
    60   32   33 1
    61   33   34 2
    62   33   35 2
    63   33   36 1
    64   36   40 1
    65   36   37 2
    66   37   38 1
    67   37   65 1
    68   38   39 2
    69   38   66 1
    70   39   40 1
    71   39   67 1
    72   41   68 1
@<TRIPOS>MOLECULE
CHEMBL302803
   57    59     0     0     0
SMALL
USER_CHARGES

@<TRIPOS>ATOM
      1 C1         -0.0187    1.5258    0.0104 C.3       1 <0>        -0.1532
      2 C2          0.0021   -0.0041    0.0020 C.3       1 <0>        -0.1218
      3 C3          0.7182   -0.4975   -1.2568 C.3       1 <0>        -0.1204
      4 C4          0.7390   -2.0273   -1.2652 C.3       1 <0>         0.0535
      5 O1          1.4078   -2.4882   -2.4409 O.3       1 <0>        -0.3082
      6 C5          1.5136   -3.8333   -2.6034 C.ar      1 <0>         0.1888
      7 C6          0.9795   -4.6920   -1.6536 C.ar      1 <0>        -0.2302
      8 C7          1.0880   -6.0589   -1.8213 C.ar      1 <0>         0.0233
      9 C8          1.7286   -6.5714   -2.9343 C.ar      1 <0>        -0.7157
     10 C9          2.2621   -5.7177   -3.8820 C.ar      1 <0>         0.0192
     11 C10         2.1509   -4.3500   -3.7221 C.ar      1 <0>        -0.1726
     12 S1          1.8658   -8.3154   -3.1449 S.o2      1 <0>         2.7237
     13 O2          2.9857   -8.5354   -3.9914 O.2       1 <0>        -0.9521
     14 O3          1.7657   -8.8901   -1.8492 O.2       1 <0>        -0.9508
     15 N1          0.5302   -8.8133   -3.9880 N.pl3     1 <0>        -1.0448
     16 C11        -0.8259   -9.2708   -3.6495 C.3       1 <0>         0.1368
     17 C12        -1.2861   -8.7439   -5.0158 C.3       1 <0>         0.0527
     18 C13         0.1761   -8.9864   -5.4048 C.3       1 <0>         0.1019
     19 N2         -2.2479   -9.6150   -5.7044 N.3       1 <0>        -0.6691
     20 C14        -3.0730   -8.8470   -6.6464 C.3       1 <0>         0.0316
     21 C15        -4.0601   -9.7861   -7.3427 C.3       1 <0>         0.1510
     22 H1         -4.7017  -10.2562   -6.5974 H         1 <0>         0.1189
     23 C16        -4.9065   -8.9983   -8.3091 C.ar      1 <0>        -0.1282
     24 C17        -4.4464   -8.7553   -9.5901 C.ar      1 <0>        -0.0945
     25 C18        -5.2202   -8.0330  -10.4778 C.ar      1 <0>        -0.1420
     26 C19        -6.4600   -7.5517  -10.0831 C.ar      1 <0>         0.1077
     27 C20        -6.9196   -7.7973   -8.7974 C.ar      1 <0>        -0.1425
     28 C21        -6.1442   -8.5246   -7.9151 C.ar      1 <0>        -0.0900
     29 O4         -7.2229   -6.8405  -10.9543 O.3       1 <0>        -0.5001
     30 O5         -3.3382  -10.7939   -8.0536 O.3       1 <0>        -0.5505
     31 H2          1.0039    1.9031    0.0027 H         1 <0>         0.0567
     32 H3         -0.5459    1.8868   -0.8726 H         1 <0>         0.0565
     33 H4         -0.5289    1.8773    0.9072 H         1 <0>         0.0588
     34 H5          0.5293   -0.3651    0.8851 H         1 <0>         0.0659
     35 H6         -1.0205   -0.3814    0.0098 H         1 <0>         0.0656
     36 H7          0.1910   -0.1364   -2.1398 H         1 <0>         0.0757
     37 H8          1.7408   -0.1202   -1.2645 H         1 <0>         0.0760
     38 H9          1.2661   -2.3884   -0.3821 H         1 <0>         0.0678
     39 H10        -0.2836   -2.4046   -1.2575 H         1 <0>         0.0673
     40 H11         0.4797   -4.2922   -0.7837 H         1 <0>         0.1388
     41 H12         0.6724   -6.7278   -1.0822 H         1 <0>         0.1430
     42 H13         2.7624   -6.1204   -4.7503 H         1 <0>         0.1461
     43 H14         2.5639   -3.6836   -4.4648 H         1 <0>         0.1421
     44 H15        -0.9071  -10.3534   -3.5519 H         1 <0>         0.0942
     45 H16        -1.2666   -8.7370   -2.8075 H         1 <0>         0.0807
     46 H17        -1.5766   -7.6934   -5.0149 H         1 <0>         0.1119
     47 H18         0.5857   -8.2112   -6.0524 H         1 <0>         0.0776
     48 H19         0.3645   -9.9924   -5.7796 H         1 <0>         0.0899
     49 H20        -1.7770  -10.3748   -6.1723 H         1 <0>         0.3552
     50 H21        -3.6236   -8.0784   -6.1042 H         1 <0>         0.0866
     51 H22        -2.4314   -8.3769   -7.3917 H         1 <0>         0.0390
     52 H23        -3.4811   -9.1301   -9.8969 H         1 <0>         0.1246
     53 H24        -4.8601   -7.8428  -11.4781 H         1 <0>         0.1305
     54 H25        -7.8844   -7.4237   -8.4877 H         1 <0>         0.1313
     55 H26        -6.5034   -8.7198   -6.9155 H         1 <0>         0.1307
     56 H27        -7.8227   -7.3825  -11.4851 H         1 <0>         0.3933
     57 H28        -2.7458  -10.4468   -8.7345 H         1 <0>         0.3716
@<TRIPOS>BOND
     1    1    2 1
     2    1   31 1
     3    1   32 1
     4    1   33 1
     5    2    3 1
     6    2   34 1
     7    2   35 1
     8    3    4 1
     9    3   36 1
    10    3   37 1
    11    4    5 1
    12    4   38 1
    13    4   39 1
    14    5    6 1
    15    6   11 ar
    16    6    7 ar
    17    7    8 ar
    18    7   40 1
    19    8    9 ar
    20    8   41 1
    21    9   10 ar
    22    9   12 1
    23   10   11 ar
    24   10   42 1
    25   11   43 1
    26   12   13 2
    27   12   14 2
    28   12   15 1
    29   15   18 1
    30   15   16 1
    31   16   17 1
    32   16   44 1
    33   16   45 1
    34   17   18 1
    35   17   19 1
    36   17   46 1
    37   18   47 1
    38   18   48 1
    39   19   20 1
    40   19   49 1
    41   20   21 1
    42   20   50 1
    43   20   51 1
    44   21   22 1
    45   21   23 1
    46   21   30 1
    47   23   28 ar
    48   23   24 ar
    49   24   25 ar
    50   24   52 1
    51   25   26 ar
    52   25   53 1
    53   26   27 ar
    54   26   29 1
    55   27   28 ar
    56   27   54 1
    57   28   55 1
    58   29   56 1
    59   30   57 1
@<TRIPOS>MOLECULE
CHEMBL302803
   58    60     0     0     0
SMALL
USER_CHARGES

@<TRIPOS>ATOM
      1 C1         -0.0187    1.5258    0.0104 C.3       1 <0>        -0.1545
      2 C2          0.0021   -0.0041    0.0020 C.3       1 <0>        -0.1213
      3 C3          0.7182   -0.4975   -1.2568 C.3       1 <0>        -0.1216
      4 C4          0.7390   -2.0273   -1.2652 C.3       1 <0>         0.0532
      5 O1          1.4078   -2.4882   -2.4409 O.3       1 <0>        -0.3044
      6 C5          1.5136   -3.8333   -2.6034 C.ar      1 <0>         0.1989
      7 C6          0.9795   -4.6920   -1.6536 C.ar      1 <0>        -0.2295
      8 C7          1.0880   -6.0589   -1.8213 C.ar      1 <0>         0.0225
      9 C8          1.7286   -6.5714   -2.9343 C.ar      1 <0>        -0.7241
     10 C9          2.2621   -5.7177   -3.8820 C.ar      1 <0>         0.0186
     11 C10         2.1509   -4.3500   -3.7221 C.ar      1 <0>        -0.1710
     12 S1          1.8658   -8.3154   -3.1449 S.o2      1 <0>         2.7195
     13 O2          2.9857   -8.5354   -3.9914 O.2       1 <0>        -0.9329
     14 O3          1.7657   -8.8901   -1.8492 O.2       1 <0>        -0.9333
     15 N1          0.5302   -8.8133   -3.9880 N.pl3     1 <0>        -1.0352
     16 C11        -0.8259   -9.2708   -3.6495 C.3       1 <0>         0.1210
     17 C12        -1.2861   -8.7439   -5.0158 C.3       1 <0>        -0.0293
     18 C13         0.1761   -8.9864   -5.4048 C.3       1 <0>         0.1207
     19 N2         -2.2479   -9.6150   -5.7044 N.4       1 <0>        -0.4961
     20 C14        -2.7071   -8.9598   -6.9364 C.3       1 <0>        -0.0431
     21 C15        -3.7088   -9.8670   -7.6536 C.3       1 <0>         0.1375
     22 H1         -4.5621  -10.0532   -7.0014 H         1 <0>         0.1330
     23 C16        -4.1799   -9.1949   -8.9175 C.ar      1 <0>        -0.1566
     24 C17        -3.4434   -9.3192  -10.0810 C.ar      1 <0>        -0.0868
     25 C18        -3.8729   -8.7037  -11.2408 C.ar      1 <0>        -0.1404
     26 C19        -5.0444   -7.9607  -11.2375 C.ar      1 <0>         0.1330
     27 C20        -5.7819   -7.8378  -10.0688 C.ar      1 <0>        -0.1417
     28 C21        -5.3508   -8.4596   -8.9129 C.ar      1 <0>        -0.0823
     29 O4         -5.4688   -7.3538  -12.3770 O.3       1 <0>        -0.4973
     30 O5         -3.0791  -11.1076   -7.9800 O.3       1 <0>        -0.5478
     31 H2          1.0039    1.9031    0.0027 H         1 <0>         0.0580
     32 H3         -0.5459    1.8868   -0.8726 H         1 <0>         0.0570
     33 H4         -0.5289    1.8773    0.9072 H         1 <0>         0.0606
     34 H5          0.5293   -0.3651    0.8851 H         1 <0>         0.0666
     35 H6         -1.0205   -0.3814    0.0098 H         1 <0>         0.0650
     36 H7          0.1910   -0.1364   -2.1398 H         1 <0>         0.0764
     37 H8          1.7408   -0.1202   -1.2645 H         1 <0>         0.0780
     38 H9          1.2661   -2.3884   -0.3821 H         1 <0>         0.0704
     39 H10        -0.2836   -2.4046   -1.2575 H         1 <0>         0.0680
     40 H11         0.4797   -4.2922   -0.7837 H         1 <0>         0.1421
     41 H12         0.6724   -6.7278   -1.0822 H         1 <0>         0.1434
     42 H13         2.7624   -6.1204   -4.7503 H         1 <0>         0.1473
     43 H14         2.5639   -3.6836   -4.4648 H         1 <0>         0.1458
     44 H15        -0.9071  -10.3534   -3.5519 H         1 <0>         0.1121
     45 H16        -1.2666   -8.7370   -2.8075 H         1 <0>         0.1153
     46 H17        -1.5766   -7.6934   -5.0149 H         1 <0>         0.1784
     47 H18         0.5857   -8.2112   -6.0524 H         1 <0>         0.1140
     48 H19         0.3645   -9.9924   -5.7796 H         1 <0>         0.1109
     49 H20        -1.8033  -10.4909   -5.9349 H         1 <0>         0.4334
     50 H21        -3.1874   -8.0136   -6.6874 H         1 <0>         0.1468
     51 H22        -1.8539   -8.7736   -7.5886 H         1 <0>         0.1389
     52 H23        -2.5315   -9.8978  -10.0831 H         1 <0>         0.1277
     53 H24        -3.2969   -8.8006  -12.1492 H         1 <0>         0.1382
     54 H25        -6.6942   -7.2599  -10.0636 H         1 <0>         0.1384
     55 H26        -5.9268   -8.3679   -8.0039 H         1 <0>         0.1325
     56 H27        -6.0511   -7.9017  -12.9210 H         1 <0>         0.4028
     57 H28        -2.3100  -11.0178   -8.5592 H         1 <0>         0.3888
     58 H29        -3.0377   -9.7874   -5.1006 H         1 <0>         0.4340
@<TRIPOS>BOND
     1    1    2 1
     2    1   31 1
     3    1   32 1
     4    1   33 1
     5    2    3 1
     6    2   34 1
     7    2   35 1
     8    3    4 1
     9    3   36 1
    10    3   37 1
    11    4    5 1
    12    4   38 1
    13    4   39 1
    14    5    6 1
    15    6   11 ar
    16    6    7 ar
    17    7    8 ar
    18    7   40 1
    19    8    9 ar
    20    8   41 1
    21    9   10 ar
    22    9   12 1
    23   10   11 ar
    24   10   42 1
    25   11   43 1
    26   12   13 2
    27   12   14 2
    28   12   15 1
    29   15   18 1
    30   15   16 1
    31   16   17 1
    32   16   44 1
    33   16   45 1
    34   17   18 1
    35   17   19 1
    36   17   46 1
    37   18   47 1
    38   18   48 1
    39   19   20 1
    40   19   49 1
    41   19   58 1
    42   20   21 1
    43   20   50 1
    44   20   51 1
    45   21   22 1
    46   21   23 1
    47   21   30 1
    48   23   28 ar
    49   23   24 ar
    50   24   25 ar
    51   24   52 1
    52   25   26 ar
    53   25   53 1
    54   26   27 ar
    55   26   29 1
    56   27   28 ar
    57   27   54 1
    58   28   55 1
    59   29   56 1
    60   30   57 1
@<TRIPOS>MOLECULE
CHEMBL290131
   82    85     0     0     0
SMALL
USER_CHARGES

@<TRIPOS>ATOM
      1 C1          1.0035    5.7065    5.5673 C.3       1 <0>        -0.1546
      2 C2          0.4573    4.2893    5.7522 C.3       1 <0>        -0.1267
      3 C3          1.4980    3.4320    6.4754 C.3       1 <0>        -0.1200
      4 C4          0.9518    2.0149    6.6603 C.3       1 <0>        -0.1222
      5 C5          1.9924    1.1576    7.3835 C.3       1 <0>        -0.1183
      6 C6          1.4462   -0.2596    7.5685 C.3       1 <0>        -0.1207
      7 C7          2.4868   -1.1169    8.2917 C.3       1 <0>        -0.1142
      8 C8          1.9407   -2.5341    8.4766 C.3       1 <0>        -0.0295
      9 C9          2.9656   -3.3785    9.1889 C.2       1 <0>         0.2173
     10 N1          3.0601   -3.5244   10.4809 N.2       1 <0>        -0.4781
     11 C10         4.0855   -4.3457   10.7517 C.2       1 <0>         0.0098
     12 C11         4.6377   -4.7141    9.5673 C.2       1 <0>        -0.0390
     13 O1          3.9230   -4.1047    8.5960 O.3       1 <0>        -0.1948
     14 C12         5.7952   -5.6137    9.3769 C.ar      1 <0>         0.0576
     15 C13         6.2578   -5.8981    8.0911 C.ar      1 <0>        -0.1276
     16 C14         7.3385   -6.7384    7.9203 C.ar      1 <0>        -0.0114
     17 C15         7.9635   -7.2988    9.0201 C.ar      1 <0>        -0.6761
     18 C16         7.5100   -7.0210   10.2973 C.ar      1 <0>        -0.0065
     19 C17         6.4339   -6.1778   10.4823 C.ar      1 <0>        -0.1198
     20 S1          9.3428   -8.3715    8.7930 S.o2      1 <0>         2.6878
     21 O2          9.3343   -9.2807    9.8850 O.2       1 <0>        -0.9398
     22 O3          9.3017   -8.8051    7.4404 O.2       1 <0>        -0.9436
     23 N2         10.7103   -7.4515    8.9538 N.pl3     1 <0>        -1.0675
     24 C18        10.9597   -6.4088    8.0585 C.ar      1 <0>         0.1427
     25 C19        11.3940   -6.6875    6.7688 C.ar      1 <0>        -0.1002
     26 C20        11.6393   -5.6542    5.8860 C.ar      1 <0>        -0.0985
     27 C21        11.4535   -4.3432    6.2848 C.ar      1 <0>        -0.1009
     28 C22        11.0212   -4.0622    7.5680 C.ar      1 <0>        -0.1010
     29 C23        10.7686   -5.0909    8.4541 C.ar      1 <0>        -0.1068
     30 C24        11.7231   -3.2182    5.3191 C.3       1 <0>        -0.1022
     31 C25        10.4448   -2.8949    4.5430 C.3       1 <0>        -0.0089
     32 N3         10.7076   -1.7983    3.6015 N.4       1 <0>        -0.5054
     33 C26         9.4803   -1.4879    2.8564 C.3       1 <0>        -0.0432
     34 C27         9.7540   -0.3457    1.8759 C.3       1 <0>         0.1416
     35 H1         10.5365   -0.6451    1.1786 H         1 <0>         0.1343
     36 C28         8.4949   -0.0273    1.1114 C.ar      1 <0>        -0.2007
     37 C29         8.2636   -0.5999   -0.1302 C.ar      1 <0>        -0.0546
     38 C30         7.0917   -0.2780   -0.7972 C.ar      1 <0>        -0.1638
     39 C31         6.1991    0.5968   -0.2067 C.ar      1 <0>         0.1227
     40 N4          6.4523    1.1227    0.9756 N.ar      1 <0>        -0.4742
     41 C32         7.5537    0.8345    1.6414 C.ar      1 <0>         0.1172
     42 O4         10.1777    0.8116    2.5991 O.3       1 <0>        -0.5458
     43 H2          1.9181    5.6690    4.9755 H         1 <0>         0.0522
     44 H3          0.2622    6.3173    5.0521 H         1 <0>         0.0550
     45 H4          1.2194    6.1428    6.5425 H         1 <0>         0.0538
     46 H5         -0.4573    4.3268    6.3440 H         1 <0>         0.0619
     47 H6          0.2415    3.8530    4.7770 H         1 <0>         0.0603
     48 H7          2.4126    3.3946    5.8836 H         1 <0>         0.0586
     49 H8          1.7138    3.8683    7.4507 H         1 <0>         0.0611
     50 H9          0.0372    2.0523    7.2521 H         1 <0>         0.0638
     51 H10         0.7359    1.5785    5.6851 H         1 <0>         0.0614
     52 H11         2.9070    1.1201    6.7918 H         1 <0>         0.0585
     53 H12         2.2083    1.5939    8.3588 H         1 <0>         0.0631
     54 H13         0.5316   -0.2222    8.1603 H         1 <0>         0.0700
     55 H14         1.2303   -0.6959    6.5932 H         1 <0>         0.0659
     56 H15         3.4015   -1.1544    7.6999 H         1 <0>         0.0639
     57 H16         2.7027   -0.6806    9.2669 H         1 <0>         0.0735
     58 H17         1.0261   -2.4966    9.0684 H         1 <0>         0.1133
     59 H18         1.7248   -2.9704    7.5014 H         1 <0>         0.0968
     60 H19         4.4123   -4.6570   11.7329 H         1 <0>         0.1914
     61 H20         5.7705   -5.4615    7.2318 H         1 <0>         0.1365
     62 H21         7.6972   -6.9595    6.9259 H         1 <0>         0.1444
     63 H22         8.0021   -7.4620   11.1516 H         1 <0>         0.1500
     64 H23         6.0836   -5.9582   11.4801 H         1 <0>         0.1437
     65 H24        11.3380   -7.6367    9.6697 H         1 <0>         0.4317
     66 H25        11.5400   -7.7112    6.4570 H         1 <0>         0.1435
     67 H26        11.9770   -5.8702    4.8832 H         1 <0>         0.1334
     68 H27        10.8771   -3.0372    7.8763 H         1 <0>         0.1308
     69 H28        10.4268   -4.8710    9.4546 H         1 <0>         0.1358
     70 H29        12.0463   -2.3354    5.8707 H         1 <0>         0.0989
     71 H30        12.5056   -3.5176    4.6218 H         1 <0>         0.0997
     72 H31        10.1216   -3.7777    3.9913 H         1 <0>         0.1356
     73 H32         9.6623   -2.5955    5.2402 H         1 <0>         0.1337
     74 H33        11.0068   -0.9811    4.1122 H         1 <0>         0.4327
     75 H34         9.1571   -2.3707    2.3048 H         1 <0>         0.1453
     76 H35         8.6978   -1.1885    3.5537 H         1 <0>         0.1374
     77 H36         8.9795   -1.2801   -0.5673 H         1 <0>         0.1412
     78 H37         6.8791   -0.7050   -1.7661 H         1 <0>         0.1473
     79 H38         5.2839    0.8527   -0.7198 H         1 <0>         0.1671
     80 H39         7.7241    1.2808    2.6100 H         1 <0>         0.1523
     81 H40         9.5291    1.1346    3.2394 H         1 <0>         0.3897
     82 H41        11.4319   -2.0754    2.9561 H         1 <0>         0.4304
@<TRIPOS>BOND
     1    1    2 1
     2    1   43 1
     3    1   44 1
     4    1   45 1
     5    2    3 1
     6    2   46 1
     7    2   47 1
     8    3    4 1
     9    3   48 1
    10    3   49 1
    11    4    5 1
    12    4   50 1
    13    4   51 1
    14    5    6 1
    15    5   52 1
    16    5   53 1
    17    6    7 1
    18    6   54 1
    19    6   55 1
    20    7    8 1
    21    7   56 1
    22    7   57 1
    23    8    9 1
    24    8   58 1
    25    8   59 1
    26    9   13 1
    27    9   10 2
    28   10   11 1
    29   11   12 2
    30   11   60 1
    31   12   13 1
    32   12   14 1
    33   14   19 ar
    34   14   15 ar
    35   15   16 ar
    36   15   61 1
    37   16   17 ar
    38   16   62 1
    39   17   18 ar
    40   17   20 1
    41   18   19 ar
    42   18   63 1
    43   19   64 1
    44   20   21 2
    45   20   22 2
    46   20   23 1
    47   23   24 1
    48   23   65 1
    49   24   29 ar
    50   24   25 ar
    51   25   26 ar
    52   25   66 1
    53   26   27 ar
    54   26   67 1
    55   27   28 ar
    56   27   30 1
    57   28   29 ar
    58   28   68 1
    59   29   69 1
    60   30   31 1
    61   30   70 1
    62   30   71 1
    63   31   32 1
    64   31   72 1
    65   31   73 1
    66   32   33 1
    67   32   74 1
    68   32   82 1
    69   33   34 1
    70   33   75 1
    71   33   76 1
    72   34   35 1
    73   34   36 1
    74   34   42 1
    75   36   41 ar
    76   36   37 ar
    77   37   38 ar
    78   37   77 1
    79   38   39 ar
    80   38   78 1
    81   39   40 ar
    82   39   79 1
    83   40   41 ar
    84   41   80 1
    85   42   81 1
@<TRIPOS>MOLECULE
CHEMBL290131
   81    84     0     0     0
SMALL
USER_CHARGES

@<TRIPOS>ATOM
      1 C1         -0.0187    1.5258    0.0104 C.3       1 <0>        -0.1543
      2 C2          0.0021   -0.0041    0.0020 C.3       1 <0>        -0.1259
      3 C3         -1.4333   -0.5336    0.0129 C.3       1 <0>        -0.1218
      4 C4         -1.4126   -2.0635    0.0045 C.3       1 <0>        -0.1206
      5 C5         -2.8479   -2.5931    0.0153 C.3       1 <0>        -0.1209
      6 C6         -2.8272   -4.1229    0.0069 C.3       1 <0>        -0.1182
      7 C7         -4.2626   -4.6525    0.0178 C.3       1 <0>        -0.1177
      8 C8         -4.2418   -6.1823    0.0094 C.3       1 <0>        -0.0237
      9 C9         -5.6556   -6.7039    0.0201 C.2       1 <0>         0.1983
     10 N1         -6.3737   -6.9655   -1.0361 N.2       1 <0>        -0.4787
     11 C10        -7.5766   -7.4114   -0.6442 C.2       1 <0>        -0.0129
     12 C11        -7.5868   -7.4200    0.7134 C.2       1 <0>        -0.0091
     13 O1         -6.3749   -6.9790    1.1167 O.3       1 <0>        -0.1931
     14 C12        -8.7068   -7.8370    1.5834 C.ar      1 <0>         0.0230
     15 C13        -8.5726   -7.7857    2.9718 C.ar      1 <0>        -0.1247
     16 C14        -9.6218   -8.1763    3.7780 C.ar      1 <0>        -0.0195
     17 C15       -10.8050   -8.6182    3.2132 C.ar      1 <0>        -0.6117
     18 C16       -10.9445   -8.6715    1.8377 C.ar      1 <0>        -0.0178
     19 C17        -9.9052   -8.2783    1.0201 C.ar      1 <0>        -0.1197
     20 S1        -12.1398   -9.1158    4.2502 S.o2      1 <0>         2.6079
     21 O2        -12.9413  -10.0033    3.4826 O.2       1 <0>        -1.0227
     22 O3        -11.5683   -9.4898    5.4963 O.2       1 <0>        -1.0253
     23 N2        -13.0638   -7.7719    4.5375 N.2       1 <0>        -1.0815
     24 C18       -14.2038   -7.8666    5.3390 C.ar      1 <0>         0.2962
     25 C19       -14.5607   -9.0860    5.9005 C.ar      1 <0>        -0.2648
     26 C20       -15.6883   -9.1760    6.6928 C.ar      1 <0>        -0.0476
     27 C21       -16.4620   -8.0541    6.9271 C.ar      1 <0>        -0.2354
     28 C22       -16.1096   -6.8386    6.3697 C.ar      1 <0>        -0.0636
     29 C23       -14.9801   -6.7403    5.5811 C.ar      1 <0>        -0.1805
     30 C24       -17.6922   -8.1563    7.7914 C.3       1 <0>        -0.0713
     31 C25       -17.3150   -7.8871    9.2495 C.3       1 <0>        -0.0112
     32 N3        -18.5142   -7.9868   10.0920 N.4       1 <0>        -0.5054
     33 C26       -18.1520   -7.7282   11.4920 C.3       1 <0>        -0.0426
     34 C27       -19.4010   -7.8321   12.3695 C.3       1 <0>         0.1404
     35 H1        -19.8240   -8.8329   12.2825 H         1 <0>         0.1328
     36 C28       -19.0294   -7.5668   13.8057 C.ar      1 <0>        -0.1952
     37 C29       -18.7408   -8.6187   14.6620 C.ar      1 <0>        -0.0553
     38 C30       -18.4039   -8.3274   15.9748 C.ar      1 <0>        -0.1653
     39 C31       -18.3671   -7.0075   16.3836 C.ar      1 <0>         0.1186
     40 N4        -18.6480   -6.0325   15.5416 N.ar      1 <0>        -0.4761
     41 C32       -18.9664   -6.2721   14.2844 C.ar      1 <0>         0.1169
     42 O4        -20.3654   -6.8684   11.9413 O.3       1 <0>        -0.5469
     43 H2          1.0039    1.9031    0.0027 H         1 <0>         0.0531
     44 H3         -0.5459    1.8868   -0.8726 H         1 <0>         0.0533
     45 H4         -0.5289    1.8773    0.9072 H         1 <0>         0.0532
     46 H5          0.5123   -0.3556   -0.8948 H         1 <0>         0.0604
     47 H6          0.5293   -0.3651    0.8851 H         1 <0>         0.0602
     48 H7         -1.9435   -0.1821    0.9097 H         1 <0>         0.0607
     49 H8         -1.9605   -0.1726   -0.8702 H         1 <0>         0.0609
     50 H9         -0.9024   -2.4150   -0.8923 H         1 <0>         0.0616
     51 H10        -0.8854   -2.4246    0.8875 H         1 <0>         0.0612
     52 H11        -3.3581   -2.2415    0.9121 H         1 <0>         0.0620
     53 H12        -3.3751   -2.2320   -0.8677 H         1 <0>         0.0626
     54 H13        -2.3170   -4.4744   -0.8899 H         1 <0>         0.0667
     55 H14        -2.3000   -4.4840    0.8900 H         1 <0>         0.0655
     56 H15        -4.7728   -4.3010    0.9146 H         1 <0>         0.0679
     57 H16        -4.7898   -4.2914   -0.8653 H         1 <0>         0.0725
     58 H17        -3.7316   -6.5338   -0.8874 H         1 <0>         0.1080
     59 H18        -3.7146   -6.5434    0.8924 H         1 <0>         0.0943
     60 H19        -8.3888   -7.7092   -1.2907 H         1 <0>         0.1890
     61 H20        -7.6494   -7.4412    3.4139 H         1 <0>         0.1331
     62 H21        -9.5191   -8.1374    4.8524 H         1 <0>         0.1424
     63 H22       -11.8706   -9.0177    1.4031 H         1 <0>         0.1457
     64 H23       -10.0169   -8.3161   -0.0534 H         1 <0>         0.1360
     65 H24       -13.9573   -9.9628    5.7173 H         1 <0>         0.1015
     66 H25       -15.9663  -10.1238    7.1296 H         1 <0>         0.1018
     67 H26       -16.7160   -5.9643    6.5547 H         1 <0>         0.1048
     68 H27       -14.7029   -5.7898    5.1497 H         1 <0>         0.1170
     69 H28       -18.4279   -7.4213    7.4647 H         1 <0>         0.0809
     70 H29       -18.1152   -9.1572    7.7044 H         1 <0>         0.0797
     71 H30       -16.5793   -8.6221    9.5761 H         1 <0>         0.1304
     72 H31       -16.8920   -6.8863    9.3365 H         1 <0>         0.1307
     73 H32       -19.1952   -7.3064    9.7896 H         1 <0>         0.4293
     74 H33       -17.4163   -8.4632   11.8186 H         1 <0>         0.1429
     75 H34       -17.7290   -6.7274   11.5790 H         1 <0>         0.1361
     76 H35       -18.7780   -9.6406   14.3145 H         1 <0>         0.1412
     77 H36       -18.1734   -9.1217   16.6693 H         1 <0>         0.1455
     78 H37       -18.1055   -6.7722   17.4047 H         1 <0>         0.1651
     79 H38       -19.1850   -5.4471   13.6226 H         1 <0>         0.1538
     80 H39       -20.0565   -5.9535   11.9918 H         1 <0>         0.3893
     81 H40       -18.9057   -8.9132   10.0115 H         1 <0>         0.4264
@<TRIPOS>BOND
     1    1    2 1
     2    1   43 1
     3    1   44 1
     4    1   45 1
     5    2    3 1
     6    2   46 1
     7    2   47 1
     8    3    4 1
     9    3   48 1
    10    3   49 1
    11    4    5 1
    12    4   50 1
    13    4   51 1
    14    5    6 1
    15    5   52 1
    16    5   53 1
    17    6    7 1
    18    6   54 1
    19    6   55 1
    20    7    8 1
    21    7   56 1
    22    7   57 1
    23    8    9 1
    24    8   58 1
    25    8   59 1
    26    9   13 1
    27    9   10 2
    28   10   11 1
    29   11   12 2
    30   11   60 1
    31   12   13 1
    32   12   14 1
    33   14   19 ar
    34   14   15 ar
    35   15   16 ar
    36   15   61 1
    37   16   17 ar
    38   16   62 1
    39   17   18 ar
    40   17   20 1
    41   18   19 ar
    42   18   63 1
    43   19   64 1
    44   20   21 2
    45   20   22 2
    46   20   23 1
    47   23   24 1
    48   24   29 ar
    49   24   25 ar
    50   25   26 ar
    51   25   65 1
    52   26   27 ar
    53   26   66 1
    54   27   28 ar
    55   27   30 1
    56   28   29 ar
    57   28   67 1
    58   29   68 1
    59   30   31 1
    60   30   69 1
    61   30   70 1
    62   31   32 1
    63   31   71 1
    64   31   72 1
    65   32   33 1
    66   32   73 1
    67   32   81 1
    68   33   34 1
    69   33   74 1
    70   33   75 1
    71   34   35 1
    72   34   36 1
    73   34   42 1
    74   36   41 ar
    75   36   37 ar
    76   37   38 ar
    77   37   76 1
    78   38   39 ar
    79   38   77 1
    80   39   40 ar
    81   39   78 1
    82   40   41 ar
    83   41   79 1
    84   42   80 1
@<TRIPOS>MOLECULE
CHEMBL291992
   75    78     0     0     0
SMALL
USER_CHARGES

@<TRIPOS>ATOM
      1 C1         -0.0187    1.5258    0.0104 C.3       1 <0>        -0.1541
      2 C2          0.0021   -0.0041    0.0020 C.3       1 <0>        -0.1253
      3 C3          0.7182   -0.4975   -1.2568 C.3       1 <0>        -0.1208
      4 C4          0.7390   -2.0273   -1.2652 C.3       1 <0>        -0.1194
      5 C5          1.4551   -2.5207   -2.5240 C.3       1 <0>        -0.1117
      6 C6          1.4758   -4.0506   -2.5324 C.3       1 <0>        -0.0481
      7 C7          2.1812   -4.5366   -3.7723 C.2       1 <0>         0.0625
      8 C8          3.2341   -5.3903   -3.6663 C.2       1 <0>        -0.2041
      9 S1          3.6525   -5.6136   -5.3908 S.3       1 <0>         0.0121
     10 C9          2.3830   -4.5486   -6.0625 C.2       1 <0>         0.1573
     11 N1          1.7769   -4.1408   -4.9563 N.2       1 <0>        -0.4876
     12 C10         2.0858   -4.2165   -7.4724 C.ar      1 <0>         0.0192
     13 C11         1.0394   -3.3467   -7.7818 C.ar      1 <0>        -0.0932
     14 C12         0.7672   -3.0409   -9.0993 C.ar      1 <0>        -0.0244
     15 C13         1.5288   -3.5951  -10.1127 C.ar      1 <0>        -0.6020
     16 C14         2.5674   -4.4585   -9.8127 C.ar      1 <0>        -0.0217
     17 C15         2.8541   -4.7671   -8.4989 C.ar      1 <0>        -0.1152
     18 S2          1.1743   -3.1998  -11.7928 S.o2      1 <0>         2.6070
     19 O1          1.6800   -4.2712  -12.5775 O.2       1 <0>        -1.0222
     20 O2         -0.1887   -2.8003  -11.8371 O.2       1 <0>        -1.0240
     21 N2          2.0720   -1.8637  -12.1815 N.2       1 <0>        -1.0810
     22 C16         1.9928   -1.3182  -13.4649 C.ar      1 <0>         0.2965
     23 C17         1.1572   -1.8919  -14.4147 C.ar      1 <0>        -0.2647
     24 C18         1.0809   -1.3498  -15.6826 C.ar      1 <0>        -0.0476
     25 C19         1.8356   -0.2374  -16.0072 C.ar      1 <0>        -0.2355
     26 C20         2.6685    0.3362  -15.0641 C.ar      1 <0>        -0.0636
     27 C21         2.7452   -0.1975  -13.7926 C.ar      1 <0>        -0.1804
     28 C22         1.7505    0.3508  -17.3921 C.3       1 <0>        -0.0713
     29 C23         0.6439    1.4066  -17.4307 C.3       1 <0>        -0.0112
     30 N3          0.5610    1.9799  -18.7806 N.4       1 <0>        -0.5054
     31 C24        -0.5016    2.9936  -18.8176 C.3       1 <0>        -0.0426
     32 C25        -0.5879    3.5908  -20.2236 C.3       1 <0>         0.1403
     33 H1         -0.8138    2.8014  -20.9404 H         1 <0>         0.1328
     34 C26        -1.6779    4.6308  -20.2616 C.ar      1 <0>        -0.1952
     35 C27        -2.9556    4.2936  -20.6821 C.ar      1 <0>        -0.0552
     36 C28        -3.9266    5.2829  -20.7008 C.ar      1 <0>        -0.1653
     37 C29        -3.5913    6.5633  -20.3025 C.ar      1 <0>         0.1186
     38 N4         -2.3655    6.8480  -19.9090 N.ar      1 <0>        -0.4761
     39 C30        -1.4183    5.9310  -19.8725 C.ar      1 <0>         0.1169
     40 O3          0.6612    4.1974  -20.5611 O.3       1 <0>        -0.5469
     41 H2          1.0039    1.9031    0.0027 H         1 <0>         0.0530
     42 H3         -0.5459    1.8868   -0.8726 H         1 <0>         0.0536
     43 H4         -0.5289    1.8773    0.9072 H         1 <0>         0.0527
     44 H5          0.5293   -0.3651    0.8851 H         1 <0>         0.0597
     45 H6         -1.0205   -0.3814    0.0098 H         1 <0>         0.0604
     46 H7          0.1910   -0.1364   -2.1398 H         1 <0>         0.0620
     47 H8          1.7408   -0.1202   -1.2645 H         1 <0>         0.0603
     48 H9          1.2661   -2.3884   -0.3821 H         1 <0>         0.0604
     49 H10        -0.2836   -2.4046   -1.2575 H         1 <0>         0.0621
     50 H11         0.9279   -2.1597   -3.4071 H         1 <0>         0.0725
     51 H12         2.4777   -2.1435   -2.5317 H         1 <0>         0.0588
     52 H13         2.0030   -4.4117   -1.6494 H         1 <0>         0.0779
     53 H14         0.4533   -4.4279   -2.5247 H         1 <0>         0.0790
     54 H15         3.6913   -5.8154   -2.7851 H         1 <0>         0.1987
     55 H16         0.4436   -2.9140   -6.9916 H         1 <0>         0.1413
     56 H17        -0.0424   -2.3679   -9.3402 H         1 <0>         0.1450
     57 H18         3.1580   -4.8880  -10.6084 H         1 <0>         0.1459
     58 H19         3.6684   -5.4372   -8.2657 H         1 <0>         0.1327
     59 H20         0.5681   -2.7611  -14.1621 H         1 <0>         0.1016
     60 H21         0.4314   -1.7954  -16.4216 H         1 <0>         0.1018
     61 H22         3.2566    1.2049  -15.3208 H         1 <0>         0.1047
     62 H23         3.3925    0.2537  -13.0551 H         1 <0>         0.1171
     63 H24         2.7033    0.8135  -17.6495 H         1 <0>         0.0808
     64 H25         1.5247   -0.4387  -18.1089 H         1 <0>         0.0796
     65 H26        -0.3089    0.9438  -17.1733 H         1 <0>         0.1305
     66 H27         0.8698    2.1960  -16.7139 H         1 <0>         0.1308
     67 H28         1.4429    2.4083  -19.0189 H         1 <0>         0.4292
     68 H29        -1.4543    2.5309  -18.5603 H         1 <0>         0.1429
     69 H30        -0.2757    3.7831  -18.1008 H         1 <0>         0.1361
     70 H31        -3.1887    3.2844  -20.9880 H         1 <0>         0.1413
     71 H32        -4.9322    5.0561  -21.0227 H         1 <0>         0.1455
     72 H33        -4.3420    7.3397  -20.3142 H         1 <0>         0.1651
     73 H34        -0.4270    6.2005  -19.5392 H         1 <0>         0.1538
     74 H35         0.9261    4.9105  -19.9640 H         1 <0>         0.3893
     75 H36         0.3519    1.2491  -19.4442 H         1 <0>         0.4264
@<TRIPOS>BOND
     1    1    2 1
     2    1   41 1
     3    1   42 1
     4    1   43 1
     5    2    3 1
     6    2   44 1
     7    2   45 1
     8    3    4 1
     9    3   46 1
    10    3   47 1
    11    4    5 1
    12    4   48 1
    13    4   49 1
    14    5    6 1
    15    5   50 1
    16    5   51 1
    17    6    7 1
    18    6   52 1
    19    6   53 1
    20    7   11 1
    21    7    8 2
    22    8    9 1
    23    8   54 1
    24    9   10 1
    25   10   11 2
    26   10   12 1
    27   12   17 ar
    28   12   13 ar
    29   13   14 ar
    30   13   55 1
    31   14   15 ar
    32   14   56 1
    33   15   16 ar
    34   15   18 1
    35   16   17 ar
    36   16   57 1
    37   17   58 1
    38   18   19 2
    39   18   20 2
    40   18   21 1
    41   21   22 1
    42   22   27 ar
    43   22   23 ar
    44   23   24 ar
    45   23   59 1
    46   24   25 ar
    47   24   60 1
    48   25   26 ar
    49   25   28 1
    50   26   27 ar
    51   26   61 1
    52   27   62 1
    53   28   29 1
    54   28   63 1
    55   28   64 1
    56   29   30 1
    57   29   65 1
    58   29   66 1
    59   30   31 1
    60   30   67 1
    61   30   75 1
    62   31   32 1
    63   31   68 1
    64   31   69 1
    65   32   33 1
    66   32   34 1
    67   32   40 1
    68   34   39 ar
    69   34   35 ar
    70   35   36 ar
    71   35   70 1
    72   36   37 ar
    73   36   71 1
    74   37   38 ar
    75   37   72 1
    76   38   39 ar
    77   39   73 1
    78   40   74 1
@<TRIPOS>MOLECULE
CHEMBL291992
   76    79     0     0     0
SMALL
USER_CHARGES

@<TRIPOS>ATOM
      1 C1         10.2431  -11.1780   16.8879 C.3       1 <0>        -0.1517
      2 C2         11.3084  -11.5083   15.8405 C.3       1 <0>        -0.1283
      3 C3         11.6202  -10.2566   15.0178 C.3       1 <0>        -0.1138
      4 C4         12.6854  -10.5870   13.9705 C.3       1 <0>        -0.1240
      5 C5         12.9972   -9.3353   13.1477 C.3       1 <0>        -0.1063
      6 C6         14.0625   -9.6656   12.1004 C.3       1 <0>        -0.0514
      7 C7         14.3696   -8.4327   11.2900 C.2       1 <0>         0.0561
      8 C8         15.6502   -7.9882   11.1853 C.2       1 <0>        -0.1844
      9 S1         15.4167   -6.5514   10.1463 S.3       1 <0>         0.0374
     10 C9         13.6440   -6.6994    9.9653 C.2       1 <0>         0.1202
     11 N1         13.4022   -7.7895   10.6798 N.2       1 <0>        -0.4759
     12 C10        12.7022   -5.8403    9.2160 C.ar      1 <0>         0.0545
     13 C11        11.3381   -6.1347    9.2103 C.ar      1 <0>        -0.0974
     14 C12        10.4646   -5.3292    8.5092 C.ar      1 <0>        -0.0162
     15 C13        10.9385   -4.2319    7.8124 C.ar      1 <0>        -0.6677
     16 C14        12.2897   -3.9348    7.8137 C.ar      1 <0>        -0.0098
     17 C15        13.1729   -4.7285    8.5163 C.ar      1 <0>        -0.1152
     18 S2          9.8162   -3.2086    6.9190 S.o2      1 <0>         2.6876
     19 O1         10.5408   -2.6748    5.8193 O.2       1 <0>        -0.9361
     20 O2          8.6238   -3.9632    6.7515 O.2       1 <0>        -0.9414
     21 N2          9.4333   -1.9298    7.8990 N.pl3     1 <0>        -1.0586
     22 C16         8.7782   -2.1516    9.1125 C.ar      1 <0>         0.1638
     23 C17         7.6867   -3.0090    9.1678 C.ar      1 <0>        -0.1489
     24 C18         7.0416   -3.2264   10.3694 C.ar      1 <0>        -0.0827
     25 C19         7.4808   -2.5913   11.5166 C.ar      1 <0>        -0.1184
     26 C20         8.5671   -1.7371   11.4651 C.ar      1 <0>        -0.0884
     27 C21         9.2203   -1.5197   10.2679 C.ar      1 <0>        -0.1249
     28 C22         6.7737   -2.8302   12.8258 C.3       1 <0>        -0.0997
     29 C23         7.4174   -4.0181   13.5437 C.3       1 <0>        -0.0089
     30 N3          6.7281   -4.2510   14.8199 N.4       1 <0>        -0.5055
     31 C24         7.3461   -5.3915   15.5092 C.3       1 <0>        -0.0432
     32 C25         6.6283   -5.6340   16.8384 C.3       1 <0>         0.1415
     33 H1          5.5768   -5.8501   16.6493 H         1 <0>         0.1339
     34 C26         7.2623   -6.8041   17.5456 C.ar      1 <0>        -0.1999
     35 C27         6.7354   -8.0791   17.4046 C.ar      1 <0>        -0.0543
     36 C28         7.3514   -9.1252   18.0738 C.ar      1 <0>        -0.1625
     37 C29         8.4625   -8.8646   18.8537 C.ar      1 <0>         0.1246
     38 N4          8.9360   -7.6390   18.9650 N.ar      1 <0>        -0.4730
     39 C30         8.3793   -6.6209   18.3381 C.ar      1 <0>         0.1174
     40 O3          6.7351   -4.4678   17.6572 O.3       1 <0>        -0.5458
     41 H2          9.3364  -10.8362   16.3887 H         1 <0>         0.0482
     42 H3         10.0210  -12.0697   17.4740 H         1 <0>         0.0565
     43 H4         10.6130  -10.3927   17.5471 H         1 <0>         0.0520
     44 H5         12.2150  -11.8502   16.3398 H         1 <0>         0.0635
     45 H6         10.9385  -12.2936   15.1813 H         1 <0>         0.0623
     46 H7         10.7135   -9.9148   14.5186 H         1 <0>         0.0550
     47 H8         11.9900   -9.4713   15.6771 H         1 <0>         0.0574
     48 H9         13.5921  -10.9288   14.4697 H         1 <0>         0.0643
     49 H10        12.3156  -11.3723   13.3112 H         1 <0>         0.0644
     50 H11        12.0906   -8.9934   12.6485 H         1 <0>         0.0676
     51 H12        13.3671   -8.5500   13.8070 H         1 <0>         0.0569
     52 H13        14.9692  -10.0074   12.5996 H         1 <0>         0.0819
     53 H14        13.6926  -10.4509   11.4411 H         1 <0>         0.0819
     54 H15        16.5571   -8.3909   11.6118 H         1 <0>         0.2040
     55 H16        10.9671   -6.9914    9.7532 H         1 <0>         0.1454
     56 H17         9.4087   -5.5560    8.5039 H         1 <0>         0.1484
     57 H18        12.6533   -3.0770    7.2675 H         1 <0>         0.1500
     58 H19        14.2268   -4.4926    8.5208 H         1 <0>         0.1406
     59 H20         9.6640   -1.0268    7.6303 H         1 <0>         0.4331
     60 H21         7.3428   -3.5048    8.2721 H         1 <0>         0.1633
     61 H22         6.1929   -3.8929   10.4131 H         1 <0>         0.1333
     62 H23         8.9075   -1.2426   12.3628 H         1 <0>         0.1301
     63 H24        10.0714   -0.8559   10.2292 H         1 <0>         0.1360
     64 H25         6.8552   -1.9406   13.4504 H         1 <0>         0.0976
     65 H26         5.7222   -3.0463   12.6367 H         1 <0>         0.0984
     66 H27         7.3359   -4.9077   12.9192 H         1 <0>         0.1348
     67 H28         8.4689   -3.8020   13.7328 H         1 <0>         0.1333
     68 H29         6.8035   -3.4275   15.3981 H         1 <0>         0.4326
     69 H30         7.2646   -6.2811   14.8847 H         1 <0>         0.1449
     70 H31         8.3976   -5.1754   15.6983 H         1 <0>         0.1372
     71 H32         5.8656   -8.2528   16.7885 H         1 <0>         0.1404
     72 H33         6.9679  -10.1311   17.9871 H         1 <0>         0.1460
     73 H34         8.9482   -9.6741   19.3782 H         1 <0>         0.1646
     74 H35         8.7986   -5.6319   18.4491 H         1 <0>         0.1517
     75 H36         7.6450   -4.2159   17.8662 H         1 <0>         0.3896
     76 H37         5.7548   -4.4510   14.6449 H         1 <0>         0.4301
@<TRIPOS>BOND
     1    1    2 1
     2    1   41 1
     3    1   42 1
     4    1   43 1
     5    2    3 1
     6    2   44 1
     7    2   45 1
     8    3    4 1
     9    3   46 1
    10    3   47 1
    11    4    5 1
    12    4   48 1
    13    4   49 1
    14    5    6 1
    15    5   50 1
    16    5   51 1
    17    6    7 1
    18    6   52 1
    19    6   53 1
    20    7   11 1
    21    7    8 2
    22    8    9 1
    23    8   54 1
    24    9   10 1
    25   10   11 2
    26   10   12 1
    27   12   17 ar
    28   12   13 ar
    29   13   14 ar
    30   13   55 1
    31   14   15 ar
    32   14   56 1
    33   15   16 ar
    34   15   18 1
    35   16   17 ar
    36   16   57 1
    37   17   58 1
    38   18   19 2
    39   18   20 2
    40   18   21 1
    41   21   22 1
    42   21   59 1
    43   22   27 ar
    44   22   23 ar
    45   23   24 ar
    46   23   60 1
    47   24   25 ar
    48   24   61 1
    49   25   26 ar
    50   25   28 1
    51   26   27 ar
    52   26   62 1
    53   27   63 1
    54   28   29 1
    55   28   64 1
    56   28   65 1
    57   29   30 1
    58   29   66 1
    59   29   67 1
    60   30   31 1
    61   30   68 1
    62   30   76 1
    63   31   32 1
    64   31   69 1
    65   31   70 1
    66   32   33 1
    67   32   34 1
    68   32   40 1
    69   34   39 ar
    70   34   35 ar
    71   35   36 ar
    72   35   71 1
    73   36   37 ar
    74   36   72 1
    75   37   38 ar
    76   37   73 1
    77   38   39 ar
    78   39   74 1
    79   40   75 1
@<TRIPOS>MOLECULE
CHEMBL102194
   88    90     0     0     0
SMALL
USER_CHARGES

@<TRIPOS>ATOM
      1 C1          2.4642    3.4217   -9.7344 C.3       1 <0>        -0.1553
      2 C2          2.6042    1.9908  -10.2578 C.3       1 <0>        -0.1260
      3 C3          2.7102    1.0239   -9.0768 C.3       1 <0>        -0.1217
      4 C4          2.8502   -0.4070   -9.6001 C.3       1 <0>        -0.1212
      5 C5          2.9562   -1.3739   -8.4192 C.3       1 <0>        -0.1201
      6 C6          3.0962   -2.8048   -8.9425 C.3       1 <0>        -0.1161
      7 C7          3.2021   -3.7717   -7.7615 C.3       1 <0>        -0.1334
      8 C8          3.3421   -5.2026   -8.2849 C.3       1 <0>         0.1358
      9 N1          3.4436   -6.1284   -7.1540 N.am      1 <0>        -0.7370
     10 C9          3.5750   -7.4513   -7.3759 C.2       1 <0>         0.7055
     11 O1          3.6093   -7.8763   -8.5145 O.2       1 <0>        -0.5720
     12 N2          3.6683   -8.3030   -6.3355 N.am      1 <0>        -0.6900
     13 C10         3.7073   -9.6834   -6.5627 C.ar      1 <0>         0.2275
     14 C11         3.0954  -10.5530   -5.6695 C.ar      1 <0>        -0.1683
     15 C12         3.1352  -11.9148   -5.8967 C.ar      1 <0>         0.0005
     16 C13         3.7835  -12.4124   -7.0122 C.ar      1 <0>        -0.6993
     17 C14         4.3942  -11.5491   -7.9032 C.ar      1 <0>        -0.0020
     18 C15         4.3530  -10.1860   -7.6847 C.ar      1 <0>        -0.1414
     19 S1          3.8321  -14.1503   -7.2985 S.o2      1 <0>         2.6896
     20 O2          4.9657  -14.3952   -8.1195 O.2       1 <0>        -0.9472
     21 O3          3.6579  -14.7752   -6.0342 O.2       1 <0>        -0.9469
     22 N3          2.5000  -14.5348   -8.2040 N.pl3     1 <0>        -0.9998
     23 C16         1.2322  -14.8956   -7.5549 C.3       1 <0>         0.1182
     24 C17         0.1206  -14.0014   -8.1128 C.3       1 <0>        -0.1286
     25 C18         0.0993  -14.1129   -9.6390 C.3       1 <0>        -0.1125
     26 C19         1.4368  -13.6315  -10.2060 C.3       1 <0>        -0.1499
     27 C20         2.5617  -14.5157   -9.6718 C.3       1 <0>         0.1202
     28 C21        -1.0322  -13.2477  -10.1976 C.3       1 <0>        -0.0072
     29 N4         -1.1298  -13.4469  -11.6497 N.4       1 <0>        -0.5049
     30 C22        -2.2161  -12.6162  -12.1861 C.3       1 <0>        -0.0423
     31 C23        -2.3177  -12.8237  -13.6985 C.3       1 <0>         0.0855
     32 H1         -2.5253  -13.8731  -13.9082 H         1 <0>         0.1366
     33 C24        -3.4492  -11.9585  -14.2571 C.3       1 <0>         0.0292
     34 O4         -3.6209  -12.2386  -15.6478 O.3       1 <0>        -0.3008
     35 C25        -4.5940  -11.5489  -16.3010 C.ar      1 <0>         0.1089
     36 C26        -5.3625  -10.6185  -15.6173 C.ar      1 <0>        -0.1914
     37 C27        -6.3510   -9.9179  -16.2807 C.ar      1 <0>        -0.1062
     38 C28        -6.5747  -10.1446  -17.6306 C.ar      1 <0>         0.0805
     39 C29        -5.8056  -11.0743  -18.3145 C.ar      1 <0>        -0.1025
     40 C30        -4.8142  -11.7718  -17.6521 C.ar      1 <0>        -0.1257
     41 O5         -7.5484   -9.4555  -18.2835 O.3       1 <0>        -0.4957
     42 O6         -1.0837  -12.4500  -14.3145 O.3       1 <0>        -0.5430
     43 H2          1.5666    3.4979   -9.1208 H         1 <0>         0.0535
     44 H3          3.3376    3.6760   -9.1339 H         1 <0>         0.0541
     45 H4          2.3887    4.1105  -10.5758 H         1 <0>         0.0547
     46 H5          1.7308    1.7365  -10.8583 H         1 <0>         0.0600
     47 H6          3.5018    1.9146  -10.8715 H         1 <0>         0.0608
     48 H7          3.5836    1.2782   -8.4763 H         1 <0>         0.0616
     49 H8          1.8126    1.1001   -8.4631 H         1 <0>         0.0608
     50 H9          1.9768   -0.6613  -10.2007 H         1 <0>         0.0609
     51 H10         3.7478   -0.4832  -10.2138 H         1 <0>         0.0622
     52 H11         3.8295   -1.1196   -7.8186 H         1 <0>         0.0633
     53 H12         2.0586   -1.2977   -7.8055 H         1 <0>         0.0621
     54 H13         2.2228   -3.0591   -9.5430 H         1 <0>         0.0651
     55 H14         3.9938   -2.8810   -9.5562 H         1 <0>         0.0671
     56 H15         4.0755   -3.5174   -7.1610 H         1 <0>         0.0720
     57 H16         2.3045   -3.6955   -7.1478 H         1 <0>         0.0704
     58 H17         2.4688   -5.4569   -8.8854 H         1 <0>         0.0684
     59 H18         4.2397   -5.2788   -8.8985 H         1 <0>         0.0712
     60 H19         3.4163   -5.7893   -6.2456 H         1 <0>         0.4014
     61 H20         3.7085   -7.9593   -5.4294 H         1 <0>         0.4139
     62 H21         2.5892  -10.1650   -4.7980 H         1 <0>         0.1375
     63 H22         2.6599  -12.5917   -5.2023 H         1 <0>         0.1436
     64 H23         4.9000  -11.9409   -8.7733 H         1 <0>         0.1416
     65 H24         4.8260   -9.5119   -8.3834 H         1 <0>         0.1521
     66 H25         0.9997  -15.9401   -7.7624 H         1 <0>         0.0831
     67 H26         1.3169  -14.7449   -6.4787 H         1 <0>         0.1027
     68 H27        -0.8405  -14.3223   -7.7111 H         1 <0>         0.0901
     69 H28         0.3079  -12.9665   -7.8262 H         1 <0>         0.0815
     70 H29        -0.0634  -15.1521   -9.9249 H         1 <0>         0.1017
     71 H30         1.4124  -13.6893  -11.2942 H         1 <0>         0.0735
     72 H31         1.6117  -12.6002   -9.8998 H         1 <0>         0.0869
     73 H32         3.5232  -14.1144   -9.9920 H         1 <0>         0.1024
     74 H33         2.4400  -15.5285  -10.0559 H         1 <0>         0.0826
     75 H34        -1.9735  -13.5328   -9.7277 H         1 <0>         0.1367
     76 H35        -0.8246  -12.1984   -9.9879 H         1 <0>         0.1335
     77 H36        -0.2584  -13.1830  -12.0847 H         1 <0>         0.4319
     78 H37        -3.1574  -12.9014  -11.7162 H         1 <0>         0.1478
     79 H38        -2.0086  -11.5669  -11.9764 H         1 <0>         0.1395
     80 H39        -4.3739  -12.1815  -13.7247 H         1 <0>         0.0819
     81 H40        -3.1998  -10.9055  -14.1266 H         1 <0>         0.0766
     82 H41        -5.1883  -10.4420  -14.5662 H         1 <0>         0.1282
     83 H42        -6.9498   -9.1939  -15.7482 H         1 <0>         0.1351
     84 H43        -5.9800  -11.2511  -19.3656 H         1 <0>         0.1419
     85 H44        -4.2129  -12.4931  -18.1855 H         1 <0>         0.1389
     86 H45        -7.2469   -8.6243  -18.6751 H         1 <0>         0.3940
     87 H46        -0.8353  -11.5268  -14.1692 H         1 <0>         0.3903
     88 H47        -1.3219  -14.4183  -11.8438 H         1 <0>         0.4313
@<TRIPOS>BOND
     1    1    2 1
     2    1   43 1
     3    1   44 1
     4    1   45 1
     5    2    3 1
     6    2   46 1
     7    2   47 1
     8    3    4 1
     9    3   48 1
    10    3   49 1
    11    4    5 1
    12    4   50 1
    13    4   51 1
    14    5    6 1
    15    5   52 1
    16    5   53 1
    17    6    7 1
    18    6   54 1
    19    6   55 1
    20    7    8 1
    21    7   56 1
    22    7   57 1
    23    8    9 1
    24    8   58 1
    25    8   59 1
    26    9   10 am
    27    9   60 1
    28   10   11 2
    29   10   12 am
    30   12   13 1
    31   12   61 1
    32   13   18 ar
    33   13   14 ar
    34   14   15 ar
    35   14   62 1
    36   15   16 ar
    37   15   63 1
    38   16   17 ar
    39   16   19 1
    40   17   18 ar
    41   17   64 1
    42   18   65 1
    43   19   20 2
    44   19   21 2
    45   19   22 1
    46   22   27 1
    47   22   23 1
    48   23   24 1
    49   23   66 1
    50   23   67 1
    51   24   25 1
    52   24   68 1
    53   24   69 1
    54   25   26 1
    55   25   28 1
    56   25   70 1
    57   26   27 1
    58   26   71 1
    59   26   72 1
    60   27   73 1
    61   27   74 1
    62   28   29 1
    63   28   75 1
    64   28   76 1
    65   29   30 1
    66   29   77 1
    67   29   88 1
    68   30   31 1
    69   30   78 1
    70   30   79 1
    71   31   32 1
    72   31   33 1
    73   31   42 1
    74   33   34 1
    75   33   80 1
    76   33   81 1
    77   34   35 1
    78   35   40 ar
    79   35   36 ar
    80   36   37 ar
    81   36   82 1
    82   37   38 ar
    83   37   83 1
    84   38   39 ar
    85   38   41 1
    86   39   40 ar
    87   39   84 1
    88   40   85 1
    89   41   86 1
    90   42   87 1
@<TRIPOS>MOLECULE
CHEMBL295502
   60    64     0     0     0
SMALL
USER_CHARGES

@<TRIPOS>ATOM
      1 C1          4.5840   -0.9403   -4.0732 C.ar      1 <0>        -0.1266
      2 C2          3.4212   -0.2991   -3.6870 C.ar      1 <0>        -0.1028
      3 C3          3.0973   -0.2004   -2.3481 C.ar      1 <0>        -0.1285
      4 C4          3.9410   -0.7461   -1.3889 C.ar      1 <0>         0.1420
      5 C5          5.1082   -1.3896   -1.7804 C.ar      1 <0>        -0.1523
      6 C6          5.4261   -1.4847   -3.1209 C.ar      1 <0>        -0.0969
      7 N1          3.6167   -0.6477   -0.0339 N.pl3     1 <0>        -1.0573
      8 S1          3.7405   -1.9770    0.9458 S.o2      1 <0>         2.6958
      9 O1          5.0498   -2.4973    0.7608 O.2       1 <0>        -0.9476
     10 O2          3.2482   -1.5889    2.2210 O.2       1 <0>        -0.9492
     11 C7          2.6241   -3.1893    0.3225 C.ar      1 <0>        -0.7024
     12 C8          1.2920   -3.1609    0.6934 C.ar      1 <0>         0.0192
     13 C9          0.4162   -4.1080    0.2081 C.ar      1 <0>        -0.1643
     14 C10         0.8667   -5.1037   -0.6617 C.ar      1 <0>         0.2208
     15 C11         2.2033   -5.1230   -1.0275 C.ar      1 <0>        -0.1577
     16 C12         3.0763   -4.1679   -0.5428 C.ar      1 <0>         0.0359
     17 C13         2.4285   -6.2875   -1.9656 C.3       1 <0>        -0.0855
     18 C14         1.0466   -6.9477   -2.1008 C.3       1 <0>         0.1222
     19 N2          0.1537   -6.1451   -1.2605 N.pl3     1 <0>        -0.5092
     20 C15        -1.2037   -6.3848   -1.0852 C.2       1 <0>         0.4940
     21 N3         -1.9015   -7.3842   -1.6493 N.2       1 <0>        -0.5565
     22 C16        -3.1490   -7.3231   -1.2776 C.2       1 <0>         0.3218
     23 O3         -3.2955   -6.2753   -0.4567 O.3       1 <0>        -0.1011
     24 N4         -2.0132   -5.6773   -0.3386 N.2       1 <0>        -0.3749
     25 C17        -4.2417   -8.2708   -1.7004 C.3       1 <0>        -0.0409
     26 C18        -4.3160   -9.4368   -0.7126 C.3       1 <0>        -0.1176
     27 C19        -5.4255  -10.3990   -1.1418 C.3       1 <0>        -0.1100
     28 C20        -5.4998  -11.5650   -0.1540 C.3       1 <0>        -0.0935
     29 C21        -4.2318  -12.4362   -0.2685 C.3       1 <0>        -0.1218
     30 C22        -4.7465  -13.8838   -0.0718 C.3       1 <0>        -0.1277
     31 C23        -6.1056  -13.8672   -0.8146 C.3       1 <0>        -0.1261
     32 C24        -6.6911  -12.4749   -0.5012 C.3       1 <0>        -0.1220
     33 H1          4.8327   -1.0201   -5.1211 H         1 <0>         0.1255
     34 H2          2.7659    0.1253   -4.4332 H         1 <0>         0.1269
     35 H3          2.1893    0.3009   -2.0471 H         1 <0>         0.1277
     36 H4          5.7665   -1.8147   -1.0372 H         1 <0>         0.1557
     37 H5          6.3334   -1.9848   -3.4260 H         1 <0>         0.1306
     38 H6          3.3189    0.1994    0.3332 H         1 <0>         0.4277
     39 H7          0.9369   -2.3941    1.3659 H         1 <0>         0.1467
     40 H8         -0.6227   -4.0804    0.5019 H         1 <0>         0.1454
     41 H9          4.1152   -4.1888   -0.8369 H         1 <0>         0.1479
     42 H10         2.7769   -5.9326   -2.9355 H         1 <0>         0.1010
     43 H11         3.1444   -6.9885   -1.5365 H         1 <0>         0.1013
     44 H12         0.7146   -6.9208   -3.1386 H         1 <0>         0.0910
     45 H13         1.0818   -7.9759   -1.7407 H         1 <0>         0.0911
     46 H14        -5.1956   -7.7434   -1.7123 H         1 <0>         0.1090
     47 H15        -4.0254   -8.6530   -2.6980 H         1 <0>         0.1160
     48 H16        -3.3622   -9.9642   -0.7007 H         1 <0>         0.0758
     49 H17        -4.5324   -9.0546    0.2850 H         1 <0>         0.0726
     50 H18        -6.3793   -9.8716   -1.1537 H         1 <0>         0.0688
     51 H19        -5.2091  -10.7812   -2.1394 H         1 <0>         0.0698
     52 H20        -5.6030  -11.1865    0.8629 H         1 <0>         0.0723
     53 H21        -3.7789  -12.3230   -1.2535 H         1 <0>         0.0677
     54 H22        -3.5180  -12.1756    0.5129 H         1 <0>         0.0627
     55 H23        -4.0652  -14.6015   -0.5287 H         1 <0>         0.0651
     56 H24        -4.8874  -14.1031    0.9866 H         1 <0>         0.0656
     57 H25        -5.9552  -13.9851   -1.8877 H         1 <0>         0.0647
     58 H26        -6.7592  -14.6510   -0.4316 H         1 <0>         0.0636
     59 H27        -7.3721  -12.5386    0.3476 H         1 <0>         0.0631
     60 H28        -7.2164  -12.0857   -1.3734 H         1 <0>         0.0655
@<TRIPOS>BOND
     1    1    6 ar
     2    1    2 ar
     3    1   33 1
     4    2    3 ar
     5    2   34 1
     6    3    4 ar
     7    3   35 1
     8    4    5 ar
     9    4    7 1
    10    5    6 ar
    11    5   36 1
    12    6   37 1
    13    7    8 1
    14    7   38 1
    15    8    9 2
    16    8   10 2
    17    8   11 1
    18   11   16 ar
    19   11   12 ar
    20   12   13 ar
    21   12   39 1
    22   13   14 ar
    23   13   40 1
    24   14   19 1
    25   14   15 ar
    26   15   16 ar
    27   15   17 1
    28   16   41 1
    29   17   18 1
    30   17   42 1
    31   17   43 1
    32   18   19 1
    33   18   44 1
    34   18   45 1
    35   19   20 1
    36   20   24 2
    37   20   21 1
    38   21   22 2
    39   22   23 1
    40   22   25 1
    41   23   24 1
    42   25   26 1
    43   25   46 1
    44   25   47 1
    45   26   27 1
    46   26   48 1
    47   26   49 1
    48   27   28 1
    49   27   50 1
    50   27   51 1
    51   28   32 1
    52   28   29 1
    53   28   52 1
    54   29   30 1
    55   29   53 1
    56   29   54 1
    57   30   31 1
    58   30   55 1
    59   30   56 1
    60   31   32 1
    61   31   57 1
    62   31   58 1
    63   32   59 1
    64   32   60 1
@<TRIPOS>MOLECULE
CHEMBL368457
   49    51     0     0     0
SMALL
USER_CHARGES

@<TRIPOS>ATOM
      1 C1         -0.0187    1.5258    0.0104 C.3       1 <0>        -0.1792
      2 C2          0.0021   -0.0041    0.0020 C.3       1 <0>         0.0548
      3 C3          0.7421   -0.5109    1.2415 C.3       1 <0>        -0.1798
      4 C4         -1.4333   -0.5336    0.0129 C.3       1 <0>        -0.1775
      5 N1          0.6897   -0.4778   -1.2066 N.4       1 <0>        -0.4983
      6 C5          2.0678    0.0307   -1.2170 C.3       1 <0>        -0.0491
      7 C6          2.7840   -0.4628   -2.4758 C.3       1 <0>         0.0882
      8 C7          4.2531   -0.0383   -2.4263 C.3       1 <0>         0.0442
      9 O1          4.9483   -0.5972   -3.5427 O.3       1 <0>        -0.2214
     10 N2          6.3234   -0.2629   -3.5910 N.2       1 <0>        -0.3114
     11 C8          7.0682   -0.7103   -4.5599 C.2       1 <0>         0.2392
     12 C9          6.6292   -1.5693   -5.6853 C.ar      1 <0>        -0.1175
     13 C10         5.3945   -2.1139   -6.0213 C.ar      1 <0>        -0.0616
     14 C11         5.2717   -2.8954   -7.1544 C.ar      1 <0>        -0.1207
     15 C12         6.3723   -3.1396   -7.9570 C.ar      1 <0>        -0.0917
     16 C13         7.6053   -2.6056   -7.6363 C.ar      1 <0>        -0.0944
     17 C14         7.7471   -1.8155   -6.4986 C.ar      1 <0>        -0.0321
     18 C15         8.9204   -1.1239   -5.9160 C.ar      1 <0>        -0.0326
     19 C16         8.5152   -0.4523   -4.7513 C.ar      1 <0>        -0.0691
     20 C17         9.4405    0.2824   -4.0177 C.ar      1 <0>        -0.0631
     21 C18        10.7548    0.3519   -4.4391 C.ar      1 <0>        -0.1151
     22 C19        11.1553   -0.3060   -5.5887 C.ar      1 <0>        -0.0906
     23 C20        10.2497   -1.0469   -6.3233 C.ar      1 <0>        -0.0922
     24 O2          2.1628    0.1050   -3.6307 O.3       1 <0>        -0.5450
     25 H1          1.0039    1.9031    0.0027 H         1 <0>         0.0810
     26 H2         -0.5459    1.8868   -0.8726 H         1 <0>         0.0834
     27 H3         -0.5289    1.8773    0.9072 H         1 <0>         0.1072
     28 H4          0.2319   -0.1594    2.1383 H         1 <0>         0.1073
     29 H5          0.7568   -1.6008    1.2356 H         1 <0>         0.0836
     30 H6          1.7647   -0.1336    1.2338 H         1 <0>         0.0816
     31 H7         -1.9605   -0.1726   -0.8702 H         1 <0>         0.0832
     32 H8         -1.4185   -1.6235    0.0069 H         1 <0>         0.0831
     33 H9         -1.9435   -0.1821    0.9097 H         1 <0>         0.1076
     34 H10         0.7033   -1.4867   -1.2121 H         1 <0>         0.4282
     35 H11         2.0530    1.1205   -1.2110 H         1 <0>         0.1423
     36 H12         2.5950   -0.3304   -0.3340 H         1 <0>         0.1480
     37 H13         2.7213   -1.5498   -2.5270 H         1 <0>         0.1320
     38 H14         4.3186    1.0490   -2.4647 H         1 <0>         0.0733
     39 H15         4.7039   -0.3970   -1.5010 H         1 <0>         0.0775
     40 H16         4.5330   -1.9266   -5.3976 H         1 <0>         0.1304
     41 H17         4.3124   -3.3179   -7.4146 H         1 <0>         0.1328
     42 H18         6.2665   -3.7522   -8.8401 H         1 <0>         0.1356
     43 H19         8.4592   -2.8007   -8.2682 H         1 <0>         0.1337
     44 H20         9.1323    0.7981   -3.1202 H         1 <0>         0.1325
     45 H21        11.4726    0.9227   -3.8687 H         1 <0>         0.1373
     46 H22        12.1845   -0.2452   -5.9104 H         1 <0>         0.1374
     47 H23        10.5702   -1.5567   -7.2199 H         1 <0>         0.1348
     48 H24         2.1814    1.0716   -3.6522 H         1 <0>         0.3906
     49 H25         0.2017   -0.1436   -2.0240 H         1 <0>         0.4317
@<TRIPOS>BOND
     1    1    2 1
     2    1   25 1
     3    1   26 1
     4    1   27 1
     5    2    3 1
     6    2    4 1
     7    2    5 1
     8    3   28 1
     9    3   29 1
    10    3   30 1
    11    4   31 1
    12    4   32 1
    13    4   33 1
    14    5    6 1
    15    5   34 1
    16    5   49 1
    17    6    7 1
    18    6   35 1
    19    6   36 1
    20    7    8 1
    21    7   24 1
    22    7   37 1
    23    8    9 1
    24    8   38 1
    25    8   39 1
    26    9   10 1
    27   10   11 2
    28   11   19 1
    29   11   12 1
    30   12   17 ar
    31   12   13 ar
    32   13   14 ar
    33   13   40 1
    34   14   15 ar
    35   14   41 1
    36   15   16 ar
    37   15   42 1
    38   16   17 ar
    39   16   43 1
    40   17   18 1
    41   18   23 ar
    42   18   19 ar
    43   19   20 ar
    44   20   21 ar
    45   20   44 1
    46   21   22 ar
    47   21   45 1
    48   22   23 ar
    49   22   46 1
    50   23   47 1
    51   24   48 1
@<TRIPOS>MOLECULE
CHEMBL368457
   49    51     0     0     0
SMALL
USER_CHARGES

@<TRIPOS>ATOM
      1 C1         -0.0187    1.5258    0.0104 C.3       1 <0>        -0.1798
      2 C2          0.0021   -0.0041    0.0020 C.3       1 <0>         0.0549
      3 C3          0.7421   -0.5109    1.2415 C.3       1 <0>        -0.1794
      4 C4         -1.4333   -0.5336    0.0129 C.3       1 <0>        -0.1774
      5 N1          0.6897   -0.4778   -1.2066 N.4       1 <0>        -0.4977
      6 C5          2.0678    0.0307   -1.2170 C.3       1 <0>        -0.0493
      7 C6          2.7840   -0.4628   -2.4758 C.3       1 <0>         0.0880
      8 C7          4.2193    0.0668   -2.4867 C.3       1 <0>         0.0442
      9 O1          4.8516   -0.2959   -3.7158 O.3       1 <0>        -0.2214
     10 N2          6.1913    0.1489   -3.8275 N.2       1 <0>        -0.3114
     11 C8          6.8780   -0.1175   -4.9004 C.2       1 <0>         0.2392
     12 C9          6.4028   -0.8654   -6.0886 C.ar      1 <0>        -0.1175
     13 C10         5.1838   -1.4606   -6.3946 C.ar      1 <0>        -0.0616
     14 C11         5.0168   -2.1061   -7.6051 C.ar      1 <0>        -0.1207
     15 C12         6.0577   -2.1636   -8.5152 C.ar      1 <0>        -0.0917
     16 C13         7.2745   -1.5772   -8.2257 C.ar      1 <0>        -0.0944
     17 C14         7.4602   -0.9223   -7.0110 C.ar      1 <0>        -0.0321
     18 C15         8.6295   -0.2164   -6.4378 C.ar      1 <0>        -0.0326
     19 C16         8.2819    0.2749   -5.1690 C.ar      1 <0>        -0.0691
     20 C17         9.2150    0.9855   -4.4218 C.ar      1 <0>        -0.0631
     21 C18        10.4799    1.2089   -4.9315 C.ar      1 <0>        -0.1151
     22 C19        10.8232    0.7290   -6.1832 C.ar      1 <0>        -0.0906
     23 C20         9.9101    0.0139   -6.9338 C.ar      1 <0>        -0.0922
     24 O2          2.8033   -1.8916   -2.4837 O.3       1 <0>        -0.5455
     25 H1          1.0039    1.9031    0.0027 H         1 <0>         0.0816
     26 H2         -0.5459    1.8868   -0.8726 H         1 <0>         0.0836
     27 H3         -0.5289    1.8773    0.9072 H         1 <0>         0.1073
     28 H4          0.2319   -0.1594    2.1383 H         1 <0>         0.1073
     29 H5          0.7568   -1.6008    1.2356 H         1 <0>         0.0833
     30 H6          1.7647   -0.1336    1.2338 H         1 <0>         0.0811
     31 H7         -1.9605   -0.1726   -0.8702 H         1 <0>         0.0832
     32 H8         -1.4185   -1.6235    0.0069 H         1 <0>         0.0832
     33 H9         -1.9435   -0.1821    0.9097 H         1 <0>         0.1076
     34 H10         0.7033   -1.4867   -1.2121 H         1 <0>         0.4313
     35 H11         2.0530    1.1205   -1.2110 H         1 <0>         0.1484
     36 H12         2.5950   -0.3304   -0.3340 H         1 <0>         0.1418
     37 H13         2.2568   -0.1017   -3.3589 H         1 <0>         0.1329
     38 H14         4.2068    1.1525   -2.3912 H         1 <0>         0.0778
     39 H15         4.7722   -0.3649   -1.6524 H         1 <0>         0.0730
     40 H16         4.3688   -1.4189   -5.6871 H         1 <0>         0.1303
     41 H17         4.0697   -2.5680   -7.8418 H         1 <0>         0.1328
     42 H18         5.9179   -2.6709   -9.4583 H         1 <0>         0.1356
     43 H19         8.0817   -1.6263   -8.9416 H         1 <0>         0.1337
     44 H20         8.9513    1.3626   -3.4447 H         1 <0>         0.1325
     45 H21        11.2038    1.7609   -4.3504 H         1 <0>         0.1373
     46 H22        11.8140    0.9092   -6.5733 H         1 <0>         0.1374
     47 H23        10.1857   -0.3565   -7.9101 H         1 <0>         0.1348
     48 H24         3.2576   -2.2830   -1.7250 H         1 <0>         0.3902
     49 H25         0.2017   -0.1436   -2.0240 H         1 <0>         0.4284
@<TRIPOS>BOND
     1    1    2 1
     2    1   25 1
     3    1   26 1
     4    1   27 1
     5    2    3 1
     6    2    4 1
     7    2    5 1
     8    3   28 1
     9    3   29 1
    10    3   30 1
    11    4   31 1
    12    4   32 1
    13    4   33 1
    14    5    6 1
    15    5   34 1
    16    5   49 1
    17    6    7 1
    18    6   35 1
    19    6   36 1
    20    7    8 1
    21    7   24 1
    22    7   37 1
    23    8    9 1
    24    8   38 1
    25    8   39 1
    26    9   10 1
    27   10   11 2
    28   11   19 1
    29   11   12 1
    30   12   17 ar
    31   12   13 ar
    32   13   14 ar
    33   13   40 1
    34   14   15 ar
    35   14   41 1
    36   15   16 ar
    37   15   42 1
    38   16   17 ar
    39   16   43 1
    40   17   18 1
    41   18   23 ar
    42   18   19 ar
    43   19   20 ar
    44   20   21 ar
    45   20   44 1
    46   21   22 ar
    47   21   45 1
    48   22   23 ar
    49   22   46 1
    50   23   47 1
    51   24   48 1
@<TRIPOS>MOLECULE
CHEMBL298594
   57    60     0     0     0
SMALL
USER_CHARGES

@<TRIPOS>ATOM
      1 C1         -7.1557   -6.6806   -0.0936 C.3       1 <0>        -0.1545
      2 C2         -6.2541   -7.8860   -0.3675 C.3       1 <0>        -0.1256
      3 C3         -5.1900   -7.5033   -1.3981 C.3       1 <0>        -0.1208
      4 C4         -4.2884   -8.7087   -1.6720 C.3       1 <0>        -0.1194
      5 C5         -3.2243   -8.3259   -2.7026 C.3       1 <0>        -0.1113
      6 C6         -2.3227   -9.5313   -2.9765 C.3       1 <0>        -0.0469
      7 C7         -1.2746   -9.1543   -3.9916 C.2       1 <0>         0.1047
      8 C8         -0.1157   -8.5567   -3.6234 C.2       1 <0>        -0.2605
      9 S1          0.6813   -8.3687   -5.2099 S.3       1 <0>         0.1116
     10 C9         -0.5245   -9.0592   -6.1596 C.2       1 <0>         0.2971
     11 N1         -1.4427   -9.3968   -5.2792 N.2       1 <0>        -0.5585
     12 N2         -0.5436   -9.2344   -7.5353 N.pl3     1 <0>        -0.4994
     13 C10        -1.6431   -9.8428   -8.2890 C.3       1 <0>         0.1194
     14 C11        -1.1923   -9.8081   -9.7585 C.3       1 <0>        -0.0859
     15 C12         0.1739   -9.1608   -9.7216 C.ar      1 <0>        -0.1582
     16 C13         0.4796   -8.8512   -8.4051 C.ar      1 <0>         0.2206
     17 C14         1.6996   -8.2348   -8.1196 C.ar      1 <0>        -0.1756
     18 C15         2.5820   -7.9361   -9.1359 C.ar      1 <0>         0.0299
     19 C16         2.2655   -8.2447  -10.4459 C.ar      1 <0>        -0.7043
     20 C17         1.0636   -8.8642  -10.7356 C.ar      1 <0>         0.0370
     21 S2          3.3957   -7.8600  -11.7418 S.o2      1 <0>         2.6941
     22 O1          2.6151   -7.6309  -12.9069 O.2       1 <0>        -0.9522
     23 O2          4.2932   -6.8882  -11.2228 O.2       1 <0>        -0.9464
     24 N3          4.2902   -9.2231  -12.0320 N.pl3     1 <0>        -1.0633
     25 C18         5.1123   -9.7453  -11.0308 C.ar      1 <0>         0.1197
     26 C19         6.3125   -9.1194  -10.7188 C.ar      1 <0>        -0.1044
     27 C20         7.1227   -9.6380   -9.7279 C.ar      1 <0>        -0.1113
     28 C21         6.7406  -10.7793   -9.0470 C.ar      1 <0>        -0.1091
     29 C22         5.5465  -11.4049   -9.3551 C.ar      1 <0>        -0.1144
     30 C23         4.7288  -10.8883  -10.3409 C.ar      1 <0>        -0.1108
     31 H1         -6.5546   -5.8577    0.2932 H         1 <0>         0.0534
     32 H2         -7.6410   -6.3721   -1.0196 H         1 <0>         0.0532
     33 H3         -7.9138   -6.9533    0.6406 H         1 <0>         0.0537
     34 H4         -5.7687   -8.1945    0.5584 H         1 <0>         0.0609
     35 H5         -6.8552   -8.7089   -0.7544 H         1 <0>         0.0606
     36 H6         -5.6753   -7.1947   -2.3241 H         1 <0>         0.0605
     37 H7         -4.5889   -6.6804   -1.0113 H         1 <0>         0.0612
     38 H8         -3.8030   -9.0172   -0.7461 H         1 <0>         0.0635
     39 H9         -4.8895   -9.5315   -2.0589 H         1 <0>         0.0630
     40 H10        -3.7097   -8.0174   -3.6286 H         1 <0>         0.0631
     41 H11        -2.6232   -7.5030   -2.3158 H         1 <0>         0.0637
     42 H12        -1.8373   -9.8398   -2.0506 H         1 <0>         0.0825
     43 H13        -2.9238  -10.3542   -3.3634 H         1 <0>         0.0804
     44 H14         0.2304   -8.2719   -2.6408 H         1 <0>         0.1971
     45 H15        -1.7993  -10.8719   -7.9656 H         1 <0>         0.0894
     46 H16        -2.5567   -9.2623   -8.1600 H         1 <0>         0.0890
     47 H17        -1.1232  -10.8195  -10.1590 H         1 <0>         0.0997
     48 H18        -1.8812   -9.2086  -10.3536 H         1 <0>         0.1004
     49 H19         1.9528   -7.9908   -7.0985 H         1 <0>         0.1335
     50 H20         3.5238   -7.4590   -8.9079 H         1 <0>         0.1502
     51 H21         0.8144   -9.1050  -11.7585 H         1 <0>         0.1459
     52 H22         4.2432   -9.6590  -12.8973 H         1 <0>         0.4258
     53 H23         6.6118   -8.2284  -11.2507 H         1 <0>         0.1359
     54 H24         8.0560   -9.1519   -9.4848 H         1 <0>         0.1307
     55 H25         7.3765  -11.1833   -8.2731 H         1 <0>         0.1270
     56 H26         5.2510  -12.2961   -8.8214 H         1 <0>         0.1272
     57 H27         3.7941  -11.3748  -10.5780 H         1 <0>         0.1272
@<TRIPOS>BOND
     1    1    2 1
     2    1   31 1
     3    1   32 1
     4    1   33 1
     5    2    3 1
     6    2   34 1
     7    2   35 1
     8    3    4 1
     9    3   36 1
    10    3   37 1
    11    4    5 1
    12    4   38 1
    13    4   39 1
    14    5    6 1
    15    5   40 1
    16    5   41 1
    17    6    7 1
    18    6   42 1
    19    6   43 1
    20    7   11 1
    21    7    8 2
    22    8    9 1
    23    8   44 1
    24    9   10 1
    25   10   11 2
    26   10   12 1
    27   12   16 1
    28   12   13 1
    29   13   14 1
    30   13   45 1
    31   13   46 1
    32   14   15 1
    33   14   47 1
    34   14   48 1
    35   15   20 ar
    36   15   16 ar
    37   16   17 ar
    38   17   18 ar
    39   17   49 1
    40   18   19 ar
    41   18   50 1
    42   19   20 ar
    43   19   21 1
    44   20   51 1
    45   21   22 2
    46   21   23 2
    47   21   24 1
    48   24   25 1
    49   24   52 1
    50   25   30 ar
    51   25   26 ar
    52   26   27 ar
    53   26   53 1
    54   27   28 ar
    55   27   54 1
    56   28   29 ar
    57   28   55 1
    58   29   30 ar
    59   29   56 1
    60   30   57 1
@<TRIPOS>MOLECULE
CHEMBL53359
   65    68     0     0     0
SMALL
USER_CHARGES

@<TRIPOS>ATOM
      1 C1          0.7859   -2.4379   11.6202 C.3       1 <0>        -0.1546
      2 C2          0.6819   -3.8270   10.9872 C.3       1 <0>        -0.1259
      3 C3         -0.5708   -3.8957   10.1113 C.3       1 <0>        -0.1215
      4 C4         -0.6748   -5.2848    9.4784 C.3       1 <0>        -0.1207
      5 C5         -1.9275   -5.3535    8.6025 C.3       1 <0>        -0.1201
      6 C6         -2.0315   -6.7426    7.9695 C.3       1 <0>        -0.1195
      7 C7         -3.2842   -6.8113    7.0937 C.3       1 <0>        -0.1102
      8 C8         -3.3882   -8.2003    6.4607 C.3       1 <0>        -0.0726
      9 C9         -4.6220   -8.2681    5.5980 C.ar      1 <0>         0.2215
     10 C10        -4.5275   -8.6433    4.2667 C.ar      1 <0>        -0.2713
     11 C11        -5.6866   -8.6932    3.5086 C.ar      1 <0>         0.1911
     12 N1         -6.8415   -8.3832    4.0742 N.ar      1 <0>        -0.5586
     13 C12        -6.8974   -8.0285    5.3494 C.ar      1 <0>         0.5659
     14 N2         -5.8088   -7.9756    6.1031 N.ar      1 <0>        -0.5494
     15 N3         -8.1238   -7.7100    5.9096 N.pl3     1 <0>        -0.5203
     16 C13        -8.3299   -7.2968    7.3002 C.3       1 <0>         0.1238
     17 C14        -9.8433   -7.0588    7.4300 C.3       1 <0>        -0.0867
     18 C15       -10.3957   -7.3660    6.0563 C.ar      1 <0>        -0.1662
     19 C16        -9.3441   -7.7298    5.2295 C.ar      1 <0>         0.2271
     20 C17        -9.6103   -8.0565    3.8984 C.ar      1 <0>        -0.1562
     21 C18       -10.9014   -8.0127    3.4166 C.ar      1 <0>         0.0135
     22 C19       -11.9426   -7.6447    4.2485 C.ar      1 <0>        -0.7034
     23 C20       -11.6881   -7.3279    5.5702 C.ar      1 <0>         0.0279
     24 S1        -13.5911   -7.5899    3.6288 S.o2      1 <0>         2.6934
     25 O1        -14.2747   -6.5964    4.3804 O.2       1 <0>        -0.9549
     26 O2        -13.4910   -7.5391    2.2123 O.2       1 <0>        -0.9488
     27 N4        -14.3026   -9.0382    4.0013 N.pl3     1 <0>        -1.0643
     28 C21       -13.7952  -10.2239    3.4651 C.ar      1 <0>         0.1216
     29 C22       -14.0287  -10.5414    2.1330 C.ar      1 <0>        -0.1046
     30 C23       -13.5252  -11.7144    1.6059 C.ar      1 <0>        -0.1116
     31 C24       -12.7897  -12.5726    2.4026 C.ar      1 <0>        -0.1098
     32 C25       -12.5553  -12.2596    3.7290 C.ar      1 <0>        -0.1144
     33 C26       -13.0511  -11.0855    4.2610 C.ar      1 <0>        -0.1101
     34 H1          1.6783   -2.3890   12.2442 H         1 <0>         0.0536
     35 H2          0.8499   -1.6847   10.8349 H         1 <0>         0.0533
     36 H3         -0.0962   -2.2506   12.2324 H         1 <0>         0.0534
     37 H4          1.5640   -4.0143   10.3750 H         1 <0>         0.0603
     38 H5          0.6179   -4.5802   11.7724 H         1 <0>         0.0604
     39 H6         -1.4529   -3.7084   10.7236 H         1 <0>         0.0606
     40 H7         -0.5068   -3.1425    9.3261 H         1 <0>         0.0605
     41 H8          0.2073   -5.4721    8.8661 H         1 <0>         0.0610
     42 H9         -0.7388   -6.0380   10.2636 H         1 <0>         0.0611
     43 H10        -2.8096   -5.1662    9.2147 H         1 <0>         0.0614
     44 H11        -1.8635   -4.6003    7.8173 H         1 <0>         0.0605
     45 H12        -1.1494   -6.9299    7.3573 H         1 <0>         0.0628
     46 H13        -2.0955   -7.4958    8.7548 H         1 <0>         0.0637
     47 H14        -4.1663   -6.6240    7.7059 H         1 <0>         0.0733
     48 H15        -3.2202   -6.0581    6.3084 H         1 <0>         0.0604
     49 H16        -2.5061   -8.3877    5.8484 H         1 <0>         0.0878
     50 H17        -3.4522   -8.9536    7.2459 H         1 <0>         0.0905
     51 H18        -3.5714   -8.8909    3.8298 H         1 <0>         0.1496
     52 H19        -5.6474   -8.9813    2.4684 H         1 <0>         0.1746
     53 H20        -8.0117   -8.0868    7.9805 H         1 <0>         0.0871
     54 H21        -7.7834   -6.3765    7.5062 H         1 <0>         0.0867
     55 H22       -10.2719   -7.7328    8.1717 H         1 <0>         0.0964
     56 H23       -10.0435   -6.0212    7.6970 H         1 <0>         0.0972
     57 H24        -8.8014   -8.3444    3.2433 H         1 <0>         0.1572
     58 H25       -11.1000   -8.2663    2.3858 H         1 <0>         0.1446
     59 H26       -12.5002   -7.0394    6.2211 H         1 <0>         0.1411
     60 H27       -15.0717   -9.0631    4.5919 H         1 <0>         0.4251
     61 H28       -14.6037   -9.8719    1.5105 H         1 <0>         0.1355
     62 H29       -13.7064  -11.9619    0.5703 H         1 <0>         0.1303
     63 H30       -12.3976  -13.4896    1.9880 H         1 <0>         0.1265
     64 H31       -11.9805  -12.9321    4.3485 H         1 <0>         0.1264
     65 H32       -12.8639  -10.8395    5.2958 H         1 <0>         0.1269
@<TRIPOS>BOND
     1    1    2 1
     2    1   34 1
     3    1   35 1
     4    1   36 1
     5    2    3 1
     6    2   37 1
     7    2   38 1
     8    3    4 1
     9    3   39 1
    10    3   40 1
    11    4    5 1
    12    4   41 1
    13    4   42 1
    14    5    6 1
    15    5   43 1
    16    5   44 1
    17    6    7 1
    18    6   45 1
    19    6   46 1
    20    7    8 1
    21    7   47 1
    22    7   48 1
    23    8    9 1
    24    8   49 1
    25    8   50 1
    26    9   14 ar
    27    9   10 ar
    28   10   11 ar
    29   10   51 1
    30   11   12 ar
    31   11   52 1
    32   12   13 ar
    33   13   14 ar
    34   13   15 1
    35   15   19 1
    36   15   16 1
    37   16   17 1
    38   16   53 1
    39   16   54 1
    40   17   18 1
    41   17   55 1
    42   17   56 1
    43   18   23 ar
    44   18   19 ar
    45   19   20 ar
    46   20   21 ar
    47   20   57 1
    48   21   22 ar
    49   21   58 1
    50   22   23 ar
    51   22   24 1
    52   23   59 1
    53   24   25 2
    54   24   26 2
    55   24   27 1
    56   27   28 1
    57   27   60 1
    58   28   33 ar
    59   28   29 ar
    60   29   30 ar
    61   29   61 1
    62   30   31 ar
    63   30   62 1
    64   31   32 ar
    65   31   63 1
    66   32   33 ar
    67   32   64 1
    68   33   65 1
@<TRIPOS>MOLECULE
CHEMBL47370
   68    69     0     0     0
SMALL
USER_CHARGES

@<TRIPOS>ATOM
      1 C1         -0.0187    1.5258    0.0104 C.3       1 <0>        -0.1712
      2 C2          0.0021   -0.0041    0.0020 C.3       1 <0>         0.1814
      3 C3         -1.4333   -0.5336    0.0129 C.3       1 <0>        -0.1344
      4 C4         -1.4126   -2.0635    0.0045 C.3       1 <0>        -0.1090
      5 C5         -0.6726   -2.5703    1.2440 C.3       1 <0>        -0.1013
      6 C6          0.7628   -2.0407    1.2331 C.3       1 <0>        -0.1328
      7 C7          0.7421   -0.5109    1.2415 C.3       1 <0>        -0.1220
      8 C8         -0.6518   -4.1002    1.2356 C.3       1 <0>         0.0595
      9 C9         -2.0829   -4.6290    1.1207 C.3       1 <0>        -0.1806
     10 C10         0.1711   -4.5925    0.0434 C.3       1 <0>        -0.1827
     11 N1         -0.0480   -4.5885    2.4825 N.4       1 <0>        -0.4985
     12 C11        -0.0280   -6.0574    2.4744 C.3       1 <0>        -0.0516
     13 C12         0.6009   -6.5661    3.7731 C.3       1 <0>         0.0885
     14 C13         0.7358   -8.0889    3.7122 C.3       1 <0>         0.0297
     15 O1          1.4280   -8.5526    4.8731 O.3       1 <0>        -0.2971
     16 C14         1.6327   -9.8922    4.9754 C.ar      1 <0>         0.1194
     17 C15         1.1817  -10.7424    3.9759 C.ar      1 <0>        -0.2066
     18 C16         1.3915  -12.1035    4.0820 C.ar      1 <0>        -0.0838
     19 C17         2.0503  -12.6190    5.1831 C.ar      1 <0>        -0.1430
     20 C18         2.5002  -11.7741    6.1805 C.ar      1 <0>        -0.0756
     21 C19         2.2979  -10.4113    6.0764 C.ar      1 <0>        -0.0997
     22 C20         2.7942   -9.4901    7.1610 C.3       1 <0>        -0.0466
     23 C21         1.6811   -9.2228    8.1411 C.2       1 <0>        -0.1491
     24 C22         1.8606   -9.4606    9.4168 C.2       1 <0>        -0.1877
     25 O2         -0.2303   -6.2053    4.8781 O.3       1 <0>        -0.5416
     26 N2          0.6878   -0.4765   -1.2033 N.am      1 <0>        -0.7222
     27 C23         0.2113   -0.1507   -2.4212 C.2       1 <0>         0.5127
     28 O3         -0.7852    0.5337   -2.5193 O.2       1 <0>        -0.4977
     29 C24         0.9167   -0.6367   -3.6611 C.3       1 <0>        -0.1250
     30 Br1        -0.0342    0.0146   -5.2538 Br        1 <0>        -0.0886
     31 H1          1.0039    1.9031    0.0027 H         1 <0>         0.0594
     32 H2         -0.5459    1.8868   -0.8726 H         1 <0>         0.0839
     33 H3         -0.5289    1.8773    0.9072 H         1 <0>         0.0675
     34 H4         -1.9435   -0.1821    0.9097 H         1 <0>         0.0766
     35 H5         -1.9605   -0.1726   -0.8702 H         1 <0>         0.0985
     36 H6         -2.4352   -2.4408    0.0122 H         1 <0>         0.0782
     37 H7         -0.9024   -2.4150   -0.8923 H         1 <0>         0.0741
     38 H8         -1.1828   -2.2188    2.1408 H         1 <0>         0.0982
     39 H9          1.2900   -2.4018    2.1162 H         1 <0>         0.0630
     40 H10         1.2730   -2.3923    0.3363 H         1 <0>         0.0808
     41 H11         1.7647   -0.1336    1.2338 H         1 <0>         0.0825
     42 H12         0.2319   -0.1594    2.1383 H         1 <0>         0.0880
     43 H13        -2.5310   -4.2666    0.1955 H         1 <0>         0.1107
     44 H14        -2.0681   -5.7189    1.1147 H         1 <0>         0.0814
     45 H15        -2.6692   -4.2782    1.9700 H         1 <0>         0.0845
     46 H16         1.1906   -4.2157    0.1252 H         1 <0>         0.0856
     47 H17         0.1859   -5.6824    0.0374 H         1 <0>         0.0821
     48 H18        -0.2770   -4.2301   -0.8818 H         1 <0>         0.1086
     49 H19         0.8958   -4.2398    2.5583 H         1 <0>         0.4256
     50 H20        -1.0476   -6.4341    2.3925 H         1 <0>         0.1427
     51 H21         0.5582   -6.4081    1.6251 H         1 <0>         0.1475
     52 H22         1.5869   -6.1187    3.8989 H         1 <0>         0.1331
     53 H23        -0.2557   -8.5403    3.6758 H         1 <0>         0.0759
     54 H24         1.2954   -8.3686    2.8196 H         1 <0>         0.0798
     55 H25         0.6668  -10.3403    3.1159 H         1 <0>         0.1232
     56 H26         1.0403  -12.7657    3.3045 H         1 <0>         0.1279
     57 H27         2.2133  -13.6836    5.2642 H         1 <0>         0.1295
     58 H28         3.0142  -12.1792    7.0397 H         1 <0>         0.1334
     59 H29         3.6309   -9.9576    7.6800 H         1 <0>         0.0780
     60 H30         3.1214   -8.5498    6.7174 H         1 <0>         0.0825
     61 H31         0.7355   -8.8352    7.7919 H         1 <0>         0.1061
     62 H32         2.8062   -9.8483    9.7661 H         1 <0>         0.0983
     63 H33         1.0629   -9.2691   10.1193 H         1 <0>         0.0994
     64 H34        -1.1250   -6.5694    4.8326 H         1 <0>         0.3898
     65 H35         1.4848   -1.0239   -1.1249 H         1 <0>         0.3977
     66 H36         1.9393   -0.2594   -3.6688 H         1 <0>         0.1275
     67 H37         0.9314   -1.7265   -3.6671 H         1 <0>         0.1236
     68 H38        -0.5906   -4.2639    3.2687 H         1 <0>         0.4319
@<TRIPOS>BOND
     1    1    2 1
     2    1   31 1
     3    1   32 1
     4    1   33 1
     5    2    7 1
     6    2    3 1
     7    2   26 1
     8    3    4 1
     9    3   34 1
    10    3   35 1
    11    4    5 1
    12    4   36 1
    13    4   37 1
    14    5    6 1
    15    5    8 1
    16    5   38 1
    17    6    7 1
    18    6   39 1
    19    6   40 1
    20    7   41 1
    21    7   42 1
    22    8    9 1
    23    8   10 1
    24    8   11 1
    25    9   43 1
    26    9   44 1
    27    9   45 1
    28   10   46 1
    29   10   47 1
    30   10   48 1
    31   11   12 1
    32   11   49 1
    33   11   68 1
    34   12   13 1
    35   12   50 1
    36   12   51 1
    37   13   14 1
    38   13   25 1
    39   13   52 1
    40   14   15 1
    41   14   53 1
    42   14   54 1
    43   15   16 1
    44   16   21 ar
    45   16   17 ar
    46   17   18 ar
    47   17   55 1
    48   18   19 ar
    49   18   56 1
    50   19   20 ar
    51   19   57 1
    52   20   21 ar
    53   20   58 1
    54   21   22 1
    55   22   23 1
    56   22   59 1
    57   22   60 1
    58   23   24 2
    59   23   61 1
    60   24   62 1
    61   24   63 1
    62   25   64 1
    63   26   27 am
    64   26   65 1
    65   27   28 2
    66   27   29 1
    67   29   30 1
    68   29   66 1
    69   29   67 1
@<TRIPOS>MOLECULE
CHEMBL47370
   68    69     0     0     0
SMALL
USER_CHARGES

@<TRIPOS>ATOM
      1 C1         -0.0187    1.5258    0.0104 C.3       1 <0>        -0.1712
      2 C2          0.0021   -0.0041    0.0020 C.3       1 <0>         0.1813
      3 C3         -1.4333   -0.5336    0.0129 C.3       1 <0>        -0.1344
      4 C4         -1.4126   -2.0635    0.0045 C.3       1 <0>        -0.1090
      5 C5         -0.6726   -2.5703    1.2440 C.3       1 <0>        -0.1013
      6 C6          0.7628   -2.0407    1.2331 C.3       1 <0>        -0.1327
      7 C7          0.7421   -0.5109    1.2415 C.3       1 <0>        -0.1219
      8 C8         -0.6518   -4.1002    1.2356 C.3       1 <0>         0.0594
      9 C9         -2.0829   -4.6290    1.1207 C.3       1 <0>        -0.1813
     10 C10         0.1711   -4.5925    0.0434 C.3       1 <0>        -0.1822
     11 N1         -0.0480   -4.5885    2.4825 N.4       1 <0>        -0.4981
     12 C11        -0.0280   -6.0574    2.4744 C.3       1 <0>        -0.0517
     13 C12         0.6009   -6.5661    3.7731 C.3       1 <0>         0.0881
     14 C13         0.6217   -8.0959    3.7647 C.3       1 <0>         0.0298
     15 O1          1.1009   -8.5727    5.0236 O.3       1 <0>        -0.2970
     16 C14         1.1817   -9.9199    5.1830 C.ar      1 <0>         0.1194
     17 C15         0.8127  -10.7656    4.1467 C.ar      1 <0>        -0.2066
     18 C16         0.8962  -12.1345    4.3109 C.ar      1 <0>        -0.0838
     19 C17         1.3470  -12.6623    5.5070 C.ar      1 <0>        -0.1431
     20 C18         1.7148  -11.8219    6.5412 C.ar      1 <0>        -0.0756
     21 C19         1.6386  -10.4518    6.3798 C.ar      1 <0>        -0.0995
     22 C20         2.0456   -9.5361    7.5054 C.3       1 <0>        -0.0476
     23 C21         0.8281   -9.1537    8.3071 C.2       1 <0>        -0.1501
     24 C22         0.8031   -9.3629    9.6001 C.2       1 <0>        -0.1868
     25 O2          1.9375   -6.0721    3.8804 O.3       1 <0>        -0.5426
     26 N2          0.6878   -0.4765   -1.2033 N.am      1 <0>        -0.7221
     27 C23         0.2113   -0.1507   -2.4212 C.2       1 <0>         0.5127
     28 O3         -0.7852    0.5337   -2.5193 O.2       1 <0>        -0.4977
     29 C24         0.9167   -0.6367   -3.6611 C.3       1 <0>        -0.1250
     30 Br1        -0.0342    0.0146   -5.2538 Br        1 <0>        -0.0886
     31 H1          1.0039    1.9031    0.0027 H         1 <0>         0.0595
     32 H2         -0.5459    1.8868   -0.8726 H         1 <0>         0.0839
     33 H3         -0.5289    1.8773    0.9072 H         1 <0>         0.0674
     34 H4         -1.9435   -0.1821    0.9097 H         1 <0>         0.0766
     35 H5         -1.9605   -0.1726   -0.8702 H         1 <0>         0.0985
     36 H6         -2.4352   -2.4408    0.0122 H         1 <0>         0.0783
     37 H7         -0.9024   -2.4150   -0.8923 H         1 <0>         0.0741
     38 H8         -1.1828   -2.2188    2.1408 H         1 <0>         0.0981
     39 H9          1.2900   -2.4018    2.1162 H         1 <0>         0.0640
     40 H10         1.2730   -2.3923    0.3363 H         1 <0>         0.0804
     41 H11         1.7647   -0.1336    1.2338 H         1 <0>         0.0826
     42 H12         0.2319   -0.1594    2.1383 H         1 <0>         0.0878
     43 H13        -2.5310   -4.2666    0.1955 H         1 <0>         0.1108
     44 H14        -2.0681   -5.7189    1.1147 H         1 <0>         0.0820
     45 H15        -2.6692   -4.2782    1.9700 H         1 <0>         0.0847
     46 H16         1.1906   -4.2157    0.1252 H         1 <0>         0.0854
     47 H17         0.1859   -5.6824    0.0374 H         1 <0>         0.0816
     48 H18        -0.2770   -4.2301   -0.8818 H         1 <0>         0.1086
     49 H19         0.8958   -4.2398    2.5583 H         1 <0>         0.4290
     50 H20        -1.0476   -6.4341    2.3925 H         1 <0>         0.1488
     51 H21         0.5582   -6.4081    1.6251 H         1 <0>         0.1414
     52 H22         0.0147   -6.2153    4.6224 H         1 <0>         0.1348
     53 H23        -0.3870   -8.4720    3.5938 H         1 <0>         0.0803
     54 H24         1.2795   -8.4460    2.9692 H         1 <0>         0.0755
     55 H25         0.4602  -10.3538    3.2125 H         1 <0>         0.1232
     56 H26         0.6088  -12.7932    3.5048 H         1 <0>         0.1279
     57 H27         1.4115  -13.7330    5.6335 H         1 <0>         0.1295
     58 H28         2.0662  -12.2366    7.4744 H         1 <0>         0.1334
     59 H29         2.7593  -10.0484    8.1506 H         1 <0>         0.0782
     60 H30         2.5068   -8.6380    7.0945 H         1 <0>         0.0844
     61 H31        -0.0237   -8.7073    7.8157 H         1 <0>         0.1044
     62 H32         1.6549   -9.8094   10.0915 H         1 <0>         0.0989
     63 H33        -0.0694   -9.0889   10.1746 H         1 <0>         0.0993
     64 H34         2.5172   -6.3457    3.1564 H         1 <0>         0.3887
     65 H35         1.4848   -1.0239   -1.1249 H         1 <0>         0.3977
     66 H36         1.9393   -0.2594   -3.6688 H         1 <0>         0.1275
     67 H37         0.9314   -1.7265   -3.6671 H         1 <0>         0.1236
     68 H38        -0.5906   -4.2639    3.2687 H         1 <0>         0.4285
@<TRIPOS>BOND
     1    1    2 1
     2    1   31 1
     3    1   32 1
     4    1   33 1
     5    2    7 1
     6    2    3 1
     7    2   26 1
     8    3    4 1
     9    3   34 1
    10    3   35 1
    11    4    5 1
    12    4   36 1
    13    4   37 1
    14    5    6 1
    15    5    8 1
    16    5   38 1
    17    6    7 1
    18    6   39 1
    19    6   40 1
    20    7   41 1
    21    7   42 1
    22    8    9 1
    23    8   10 1
    24    8   11 1
    25    9   43 1
    26    9   44 1
    27    9   45 1
    28   10   46 1
    29   10   47 1
    30   10   48 1
    31   11   12 1
    32   11   49 1
    33   11   68 1
    34   12   13 1
    35   12   50 1
    36   12   51 1
    37   13   14 1
    38   13   25 1
    39   13   52 1
    40   14   15 1
    41   14   53 1
    42   14   54 1
    43   15   16 1
    44   16   21 ar
    45   16   17 ar
    46   17   18 ar
    47   17   55 1
    48   18   19 ar
    49   18   56 1
    50   19   20 ar
    51   19   57 1
    52   20   21 ar
    53   20   58 1
    54   21   22 1
    55   22   23 1
    56   22   59 1
    57   22   60 1
    58   23   24 2
    59   23   61 1
    60   24   62 1
    61   24   63 1
    62   25   64 1
    63   26   27 am
    64   26   65 1
    65   27   28 2
    66   27   29 1
    67   29   30 1
    68   29   66 1
    69   29   67 1
@<TRIPOS>MOLECULE
CHEMBL419085
   55    56     0     0     0
SMALL
USER_CHARGES

@<TRIPOS>ATOM
      1 C1         -0.0187    1.5258    0.0104 C.3       1 <0>        -0.1823
      2 C2          0.0021   -0.0041    0.0020 C.3       1 <0>         0.0304
      3 H1         -1.0205   -0.3814    0.0098 H         1 <0>         0.1428
      4 C3          0.7421   -0.5109    1.2415 C.3       1 <0>        -0.0400
      5 C4          0.6567   -2.0144    1.2978 C.2       1 <0>        -0.0542
      6 N1          1.4801   -2.8958    0.7873 N.2       1 <0>        -0.5000
      7 C5          1.2689   -4.1899    0.9214 C.2       1 <0>         0.0071
      8 C6          0.1612   -4.5644    1.6113 C.2       1 <0>        -0.1284
      9 S1         -0.5159   -2.9682    2.0380 S.3       1 <0>         0.1445
     10 C7         -0.3517   -5.9446    1.9324 C.3       1 <0>        -0.0460
     11 C8          0.2364   -6.4097    3.2661 C.3       1 <0>        -0.1148
     12 C9         -0.2844   -7.8109    3.5921 C.3       1 <0>        -0.0933
     13 C10         0.3038   -8.2761    4.9258 C.3       1 <0>        -0.1846
     14 C11        -0.2092   -9.6562    5.2469 C.2       1 <0>         0.4868
     15 O1         -0.9743  -10.2159    4.4802 O.co2     1 <0>        -0.6991
     16 O2          0.1409  -10.2131    6.2735 O.co2     1 <0>        -0.7035
     17 N2          0.6897   -0.4778   -1.2066 N.4       1 <0>        -0.5012
     18 C12        -0.0856   -0.0931   -2.3936 C.3       1 <0>        -0.0458
     19 C13         0.6305   -0.5866   -3.6524 C.3       1 <0>         0.0863
     20 H2          0.7239   -1.6719   -3.6155 H         1 <0>         0.1350
     21 C14        -0.1769   -0.1859   -4.8887 C.3       1 <0>         0.0315
     22 O3          0.4292   -0.7457   -6.0554 O.3       1 <0>        -0.3016
     23 C15        -0.1685   -0.4834   -7.2474 C.ar      1 <0>         0.1186
     24 C16        -1.3115    0.3016   -7.2937 C.ar      1 <0>        -0.2098
     25 C17        -1.9169    0.5672   -8.5067 C.ar      1 <0>        -0.0803
     26 C18        -1.3850    0.0511   -9.6739 C.ar      1 <0>        -0.1493
     27 C19        -0.2462   -0.7319   -9.6304 C.ar      1 <0>        -0.0768
     28 C20         0.3665   -0.9953   -8.4206 C.ar      1 <0>        -0.1449
     29 O4          1.9312    0.0013   -3.7219 O.3       1 <0>        -0.5405
     30 H3          1.0039    1.9031    0.0027 H         1 <0>         0.0870
     31 H4         -0.5459    1.8868   -0.8726 H         1 <0>         0.0842
     32 H5         -0.5289    1.8773    0.9072 H         1 <0>         0.1116
     33 H6          1.7879   -0.2080    1.1895 H         1 <0>         0.1176
     34 H7          0.2852   -0.0874    2.1360 H         1 <0>         0.1350
     35 H8          1.9459   -4.9191    0.5013 H         1 <0>         0.1824
     36 H9         -1.4391   -5.9206    2.0035 H         1 <0>         0.0888
     37 H10        -0.0543   -6.6354    1.1435 H         1 <0>         0.1004
     38 H11         1.3238   -6.4337    3.1950 H         1 <0>         0.0629
     39 H12        -0.0610   -5.7189    4.0550 H         1 <0>         0.0597
     40 H13        -1.3718   -7.7870    3.6632 H         1 <0>         0.0626
     41 H14         0.0130   -8.5018    2.8032 H         1 <0>         0.0636
     42 H15         1.3912   -8.3001    4.8547 H         1 <0>         0.0558
     43 H16         0.0064   -7.5853    5.7147 H         1 <0>         0.0553
     44 H17         1.6080   -0.0627   -1.2556 H         1 <0>         0.4321
     45 H18        -1.0777   -0.5415   -2.3406 H         1 <0>         0.1456
     46 H19        -0.1790    0.9922   -2.4305 H         1 <0>         0.1421
     47 H20        -1.1963   -0.5599   -4.7938 H         1 <0>         0.0816
     48 H21        -0.1950    0.9006   -4.9744 H         1 <0>         0.0764
     49 H22        -1.7278    0.7043   -6.3822 H         1 <0>         0.1238
     50 H23        -2.8068    1.1781   -8.5433 H         1 <0>         0.1278
     51 H24        -1.8599    0.2596  -10.6212 H         1 <0>         0.1286
     52 H25         0.1672   -1.1341  -10.5434 H         1 <0>         0.1344
     53 H26         1.2586   -1.6032   -8.3876 H         1 <0>         0.1334
     54 H27         1.9246    0.9676   -3.7575 H         1 <0>         0.3876
     55 H28         0.7761   -1.4825   -1.1724 H         1 <0>         0.4333
@<TRIPOS>BOND
     1    1    2 1
     2    1   30 1
     3    1   31 1
     4    1   32 1
     5    2    3 1
     6    2    4 1
     7    2   17 1
     8    4    5 1
     9    4   33 1
    10    4   34 1
    11    5    9 1
    12    5    6 2
    13    6    7 1
    14    7    8 2
    15    7   35 1
    16    8    9 1
    17    8   10 1
    18   10   11 1
    19   10   36 1
    20   10   37 1
    21   11   12 1
    22   11   38 1
    23   11   39 1
    24   12   13 1
    25   12   40 1
    26   12   41 1
    27   13   14 1
    28   13   42 1
    29   13   43 1
    30   14   15 2
    31   14   16 1
    32   17   18 1
    33   17   44 1
    34   17   55 1
    35   18   19 1
    36   18   45 1
    37   18   46 1
    38   19   20 1
    39   19   21 1
    40   19   29 1
    41   21   22 1
    42   21   47 1
    43   21   48 1
    44   22   23 1
    45   23   28 ar
    46   23   24 ar
    47   24   25 ar
    48   24   49 1
    49   25   26 ar
    50   25   50 1
    51   26   27 ar
    52   26   51 1
    53   27   28 ar
    54   27   52 1
    55   28   53 1
    56   29   54 1
@<TRIPOS>MOLECULE
CHEMBL424167
   74    78     0     0     0
SMALL
USER_CHARGES

@<TRIPOS>ATOM
      1 C1         -0.0226    1.1057   -0.2372 C.ar      1 <0>        -0.0553
      2 C2          1.1374    1.8576   -0.2283 C.ar      1 <0>        -0.1319
      3 C3          2.3676    1.2297   -0.1722 C.ar      1 <0>        -0.0131
      4 C4          2.4379   -0.1500   -0.1245 C.ar      1 <0>        -0.6774
      5 C5          1.2779   -0.9019   -0.1325 C.ar      1 <0>        -0.0254
      6 C6          0.0477   -0.2740   -0.1901 C.ar      1 <0>        -0.1425
      7 S1          4.0061   -0.9504   -0.0541 S.o2      1 <0>         2.6883
      8 O1          3.8161   -2.2618   -0.5674 O.2       1 <0>        -0.9492
      9 O2          4.9497   -0.0444   -0.6091 O.2       1 <0>        -0.9345
     10 N1          4.3976   -1.1204    1.5459 N.pl3     1 <0>        -1.0494
     11 C7          3.5707   -1.8670    2.3932 C.ar      1 <0>         0.1428
     12 C8          2.9251   -2.9981    1.9155 C.ar      1 <0>        -0.1464
     13 C9          2.1094   -3.7339    2.7543 C.ar      1 <0>        -0.1203
     14 C10         1.9347   -3.3456    4.0697 C.ar      1 <0>        -0.1030
     15 C11         2.5751   -2.2192    4.5529 C.ar      1 <0>        -0.1128
     16 C12         3.3983   -1.4794    3.7202 C.ar      1 <0>         0.1124
     17 O3          4.0329   -0.3742    4.1956 O.3       1 <0>        -0.4873
     18 C13         1.4084   -4.9622    2.2338 C.3       1 <0>         0.1354
     19 H1          1.9642   -5.3667    1.3879 H         1 <0>         0.1378
     20 C14        -0.0058   -4.5900    1.7838 C.3       1 <0>        -0.0499
     21 N2         -0.6892   -5.7873    1.2763 N.4       1 <0>        -0.5039
     22 C15        -2.0470   -5.4300    0.8443 C.3       1 <0>         0.0263
     23 C16        -2.8652   -4.9778    2.0560 C.3       1 <0>        -0.1595
     24 C17        -4.2695   -4.5732    1.5967 C.3       1 <0>         0.1264
     25 N3         -4.8634   -5.6909    0.8506 N.pl3     1 <0>        -0.6360
     26 C18        -4.1172   -6.2622   -0.2788 C.3       1 <0>         0.1252
     27 C19        -2.7146   -6.6479    0.2016 C.3       1 <0>        -0.1595
     28 C20        -6.1134   -6.2011    1.2085 C.ar      1 <0>         0.2107
     29 C21        -6.8646   -5.5744    2.1948 C.ar      1 <0>        -0.1918
     30 C22        -8.1004   -6.0812    2.5459 C.ar      1 <0>        -0.0586
     31 C23        -8.5900   -7.2114    1.9173 C.ar      1 <0>        -0.1398
     32 C24        -7.8448   -7.8377    0.9351 C.ar      1 <0>        -0.0502
     33 C25        -6.6107   -7.3329    0.5751 C.ar      1 <0>        -0.1898
     34 C26        -9.9385   -7.7621    2.3038 C.3       1 <0>        -0.0512
     35 C27       -11.0202   -7.1202    1.4327 C.3       1 <0>        -0.0702
     36 C28       -12.3934   -7.7033    1.7354 C.2       1 <0>         0.5288
     37 O4        -12.9161   -7.5989    2.8244 O.2       1 <0>        -0.4559
     38 N4        -12.9770   -8.3311    0.7285 N.am      1 <0>        -0.6898
     39 C29       -12.4185   -8.4603   -0.4892 C.2       1 <0>         0.5624
     40 O5        -12.8762   -9.0158   -1.4690 O.2       1 <0>        -0.4129
     41 S2        -10.8474   -7.6240   -0.3299 S.3       1 <0>        -0.1487
     42 O6          1.3357   -5.9441    3.2694 O.3       1 <0>        -0.5434
     43 H2         -0.9838    1.5964   -0.2766 H         1 <0>         0.1361
     44 H3          1.0825    2.9356   -0.2656 H         1 <0>         0.1402
     45 H4          3.2739    1.8171   -0.1659 H         1 <0>         0.1451
     46 H5          1.3328   -1.9798   -0.0956 H         1 <0>         0.1310
     47 H6         -0.8585   -0.8614   -0.1967 H         1 <0>         0.1305
     48 H7          5.2000   -0.7027    1.8959 H         1 <0>         0.4378
     49 H8          3.0596   -3.3034    0.8883 H         1 <0>         0.1697
     50 H9          1.2962   -3.9233    4.7215 H         1 <0>         0.1314
     51 H10         2.4365   -1.9186    5.5809 H         1 <0>         0.1447
     52 H11         3.5255    0.4432    4.0979 H         1 <0>         0.3986
     53 H12        -0.5616   -4.1855    2.6297 H         1 <0>         0.1400
     54 H13         0.0496   -3.8410    0.9938 H         1 <0>         0.1441
     55 H14        -0.1747   -6.1617    0.4933 H         1 <0>         0.4312
     56 H15        -1.9953   -4.6188    0.1181 H         1 <0>         0.1409
     57 H16        -2.9384   -5.7967    2.7717 H         1 <0>         0.0940
     58 H17        -2.3766   -4.1248    2.5271 H         1 <0>         0.0964
     59 H18        -4.8866   -4.3450    2.4657 H         1 <0>         0.1035
     60 H19        -4.2047   -3.6968    0.9517 H         1 <0>         0.0734
     61 H20        -4.6338   -7.1485   -0.6472 H         1 <0>         0.1055
     62 H21        -4.0399   -5.5236   -1.0767 H         1 <0>         0.0750
     63 H22        -2.1189   -6.9836   -0.6472 H         1 <0>         0.1006
     64 H23        -2.7892   -7.4510    0.9347 H         1 <0>         0.0938
     65 H24        -6.4825   -4.6921    2.6866 H         1 <0>         0.1232
     66 H25        -8.6849   -5.5944    3.3126 H         1 <0>         0.1277
     67 H26        -8.2301   -8.7202    0.4461 H         1 <0>         0.1308
     68 H27        -6.0312   -7.8199   -0.1953 H         1 <0>         0.1244
     69 H28        -9.9460   -8.8419    2.1557 H         1 <0>         0.0894
     70 H29       -10.1356   -7.5378    3.3521 H         1 <0>         0.1051
     71 H30       -11.0173   -6.0353    1.5373 H         1 <0>         0.1598
     72 H31       -13.8538   -8.7193    0.8754 H         1 <0>         0.4202
     73 H32         0.8538   -5.6520    4.0553 H         1 <0>         0.3877
     74 H33        -0.7405   -6.4806    2.0076 H         1 <0>         0.4311
@<TRIPOS>BOND
     1    1    6 ar
     2    1    2 ar
     3    1   43 1
     4    2    3 ar
     5    2   44 1
     6    3    4 ar
     7    3   45 1
     8    4    5 ar
     9    4    7 1
    10    5    6 ar
    11    5   46 1
    12    6   47 1
    13    7    8 2
    14    7    9 2
    15    7   10 1
    16   10   11 1
    17   10   48 1
    18   11   16 ar
    19   11   12 ar
    20   12   13 ar
    21   12   49 1
    22   13   14 ar
    23   13   18 1
    24   14   15 ar
    25   14   50 1
    26   15   16 ar
    27   15   51 1
    28   16   17 1
    29   17   52 1
    30   18   19 1
    31   18   20 1
    32   18   42 1
    33   20   21 1
    34   20   53 1
    35   20   54 1
    36   21   22 1
    37   21   55 1
    38   21   74 1
    39   22   27 1
    40   22   23 1
    41   22   56 1
    42   23   24 1
    43   23   57 1
    44   23   58 1
    45   24   25 1
    46   24   59 1
    47   24   60 1
    48   25   26 1
    49   25   28 1
    50   26   27 1
    51   26   61 1
    52   26   62 1
    53   27   63 1
    54   27   64 1
    55   28   33 ar
    56   28   29 ar
    57   29   30 ar
    58   29   65 1
    59   30   31 ar
    60   30   66 1
    61   31   32 ar
    62   31   34 1
    63   32   33 ar
    64   32   67 1
    65   33   68 1
    66   34   35 1
    67   34   69 1
    68   34   70 1
    69   35   41 1
    70   35   36 1
    71   35   71 1
    72   36   37 2
    73   36   38 am
    74   38   39 am
    75   38   72 1
    76   39   40 2
    77   39   41 1
    78   42   73 1
@<TRIPOS>MOLECULE
CHEMBL424167
   73    77     0     0     0
SMALL
USER_CHARGES

@<TRIPOS>ATOM
      1 C1         -0.0226    1.1057   -0.2372 C.ar      1 <0>        -0.0664
      2 C2          1.1374    1.8576   -0.2283 C.ar      1 <0>        -0.1383
      3 C3          2.3676    1.2297   -0.1722 C.ar      1 <0>        -0.0123
      4 C4          2.4379   -0.1500   -0.1245 C.ar      1 <0>        -0.6639
      5 C5          1.2779   -0.9019   -0.1325 C.ar      1 <0>        -0.0172
      6 C6          0.0477   -0.2740   -0.1901 C.ar      1 <0>        -0.1480
      7 S1          4.0061   -0.9504   -0.0541 S.o2      1 <0>         2.6865
      8 O1          3.8161   -2.2618   -0.5674 O.2       1 <0>        -0.9649
      9 O2          4.9497   -0.0444   -0.6091 O.2       1 <0>        -0.9648
     10 N1          4.3976   -1.1204    1.5459 N.pl3     1 <0>        -1.0221
     11 C7          3.5707   -1.8670    2.3932 C.ar      1 <0>         0.0012
     12 C8          2.9251   -2.9981    1.9155 C.ar      1 <0>        -0.1001
     13 C9          2.1094   -3.7339    2.7543 C.ar      1 <0>        -0.2767
     14 C10         1.9347   -3.3456    4.0697 C.ar      1 <0>        -0.0558
     15 C11         2.5751   -2.2192    4.5529 C.ar      1 <0>        -0.2503
     16 C12         3.3983   -1.4794    3.7202 C.ar      1 <0>         0.2808
     17 O3          4.0329   -0.3742    4.1956 O.3       1 <0>        -0.6939
     18 C13         1.4084   -4.9622    2.2338 C.3       1 <0>         0.1617
     19 H1          1.9642   -5.3667    1.3879 H         1 <0>         0.1167
     20 C14        -0.0058   -4.5900    1.7838 C.3       1 <0>        -0.0497
     21 N2         -0.6892   -5.7873    1.2763 N.4       1 <0>        -0.5043
     22 C15        -2.0470   -5.4300    0.8443 C.3       1 <0>         0.0262
     23 C16        -2.8652   -4.9778    2.0560 C.3       1 <0>        -0.1598
     24 C17        -4.2695   -4.5732    1.5967 C.3       1 <0>         0.1259
     25 N3         -4.8634   -5.6909    0.8506 N.pl3     1 <0>        -0.6345
     26 C18        -4.1172   -6.2622   -0.2788 C.3       1 <0>         0.1254
     27 C19        -2.7146   -6.6479    0.2016 C.3       1 <0>        -0.1588
     28 C20        -6.1134   -6.2011    1.2085 C.ar      1 <0>         0.2164
     29 C21        -6.8646   -5.5744    2.1948 C.ar      1 <0>        -0.1930
     30 C22        -8.1004   -6.0812    2.5459 C.ar      1 <0>        -0.0578
     31 C23        -8.5900   -7.2114    1.9173 C.ar      1 <0>        -0.1464
     32 C24        -7.8448   -7.8377    0.9351 C.ar      1 <0>        -0.0505
     33 C25        -6.6107   -7.3329    0.5751 C.ar      1 <0>        -0.1925
     34 C26        -9.9385   -7.7621    2.3038 C.3       1 <0>        -0.0491
     35 C27       -11.0202   -7.1202    1.4327 C.3       1 <0>        -0.0702
     36 C28       -12.3934   -7.7033    1.7354 C.2       1 <0>         0.5290
     37 O4        -12.9161   -7.5989    2.8244 O.2       1 <0>        -0.4571
     38 N4        -12.9770   -8.3311    0.7285 N.am      1 <0>        -0.6902
     39 C29       -12.4185   -8.4603   -0.4892 C.2       1 <0>         0.5610
     40 O5        -12.8762   -9.0158   -1.4690 O.2       1 <0>        -0.4160
     41 S2        -10.8474   -7.6240   -0.3299 S.3       1 <0>        -0.1445
     42 O6          1.3357   -5.9441    3.2694 O.3       1 <0>        -0.5586
     43 H2         -0.9839    1.5964   -0.2766 H         1 <0>         0.1287
     44 H3          1.0825    2.9356   -0.2656 H         1 <0>         0.1334
     45 H4          3.2739    1.8171   -0.1659 H         1 <0>         0.1406
     46 H5          1.3328   -1.9798   -0.0956 H         1 <0>         0.1312
     47 H6         -0.8585   -0.8614   -0.1967 H         1 <0>         0.1245
     48 H7          5.2000   -0.7027    1.8959 H         1 <0>         0.4263
     49 H8          3.0596   -3.3034    0.8883 H         1 <0>         0.1366
     50 H9          1.2962   -3.9233    4.7215 H         1 <0>         0.0921
     51 H10         2.4365   -1.9186    5.5809 H         1 <0>         0.1057
     52 H11        -0.5616   -4.1855    2.6297 H         1 <0>         0.1336
     53 H12         0.0496   -3.8410    0.9938 H         1 <0>         0.1381
     54 H13        -0.1747   -6.1617    0.4933 H         1 <0>         0.4270
     55 H14        -1.9953   -4.6188    0.1181 H         1 <0>         0.1386
     56 H15        -2.9384   -5.7967    2.7717 H         1 <0>         0.0918
     57 H16        -2.3766   -4.1248    2.5271 H         1 <0>         0.1010
     58 H17        -4.8866   -4.3450    2.4657 H         1 <0>         0.1020
     59 H18        -4.2047   -3.6968    0.9517 H         1 <0>         0.0744
     60 H19        -4.6338   -7.1485   -0.6472 H         1 <0>         0.1025
     61 H20        -4.0399   -5.5236   -1.0767 H         1 <0>         0.0746
     62 H21        -2.1189   -6.9836   -0.6472 H         1 <0>         0.0988
     63 H22        -2.7892   -7.4510    0.9347 H         1 <0>         0.0916
     64 H23        -6.4825   -4.6921    2.6866 H         1 <0>         0.1245
     65 H24        -8.6849   -5.5944    3.3126 H         1 <0>         0.1265
     66 H25        -8.2301   -8.7202    0.4461 H         1 <0>         0.1289
     67 H26        -6.0312   -7.8199   -0.1953 H         1 <0>         0.1243
     68 H27        -9.9460   -8.8419    2.1557 H         1 <0>         0.0881
     69 H28       -10.1356   -7.5378    3.3521 H         1 <0>         0.1042
     70 H29       -11.0173   -6.0353    1.5373 H         1 <0>         0.1602
     71 H30       -13.8538   -8.7193    0.8754 H         1 <0>         0.4188
     72 H31         0.8538   -5.6520    4.0553 H         1 <0>         0.3810
     73 H32        -0.7405   -6.4806    2.0076 H         1 <0>         0.4270
@<TRIPOS>BOND
     1    1    6 ar
     2    1    2 ar
     3    1   43 1
     4    2    3 ar
     5    2   44 1
     6    3    4 ar
     7    3   45 1
     8    4    5 ar
     9    4    7 1
    10    5    6 ar
    11    5   46 1
    12    6   47 1
    13    7    8 2
    14    7    9 2
    15    7   10 1
    16   10   11 1
    17   10   48 1
    18   11   16 ar
    19   11   12 ar
    20   12   13 ar
    21   12   49 1
    22   13   14 ar
    23   13   18 1
    24   14   15 ar
    25   14   50 1
    26   15   16 ar
    27   15   51 1
    28   16   17 1
    29   18   19 1
    30   18   20 1
    31   18   42 1
    32   20   21 1
    33   20   52 1
    34   20   53 1
    35   21   22 1
    36   21   54 1
    37   21   73 1
    38   22   27 1
    39   22   23 1
    40   22   55 1
    41   23   24 1
    42   23   56 1
    43   23   57 1
    44   24   25 1
    45   24   58 1
    46   24   59 1
    47   25   26 1
    48   25   28 1
    49   26   27 1
    50   26   60 1
    51   26   61 1
    52   27   62 1
    53   27   63 1
    54   28   33 ar
    55   28   29 ar
    56   29   30 ar
    57   29   64 1
    58   30   31 ar
    59   30   65 1
    60   31   32 ar
    61   31   34 1
    62   32   33 ar
    63   32   66 1
    64   33   67 1
    65   34   35 1
    66   34   68 1
    67   34   69 1
    68   35   41 1
    69   35   36 1
    70   35   70 1
    71   36   37 2
    72   36   38 am
    73   38   39 am
    74   38   71 1
    75   39   40 2
    76   39   41 1
    77   42   72 1
@<TRIPOS>MOLECULE
CHEMBL424167
   74    78     0     0     0
SMALL
USER_CHARGES

@<TRIPOS>ATOM
      1 C1         -0.0226    1.1057   -0.2372 C.ar      1 <0>        -0.0552
      2 C2          1.1374    1.8576   -0.2283 C.ar      1 <0>        -0.1319
      3 C3          2.3676    1.2297   -0.1722 C.ar      1 <0>        -0.0132
      4 C4          2.4379   -0.1500   -0.1245 C.ar      1 <0>        -0.6775
      5 C5          1.2779   -0.9019   -0.1325 C.ar      1 <0>        -0.0254
      6 C6          0.0477   -0.2740   -0.1901 C.ar      1 <0>        -0.1425
      7 S1          4.0061   -0.9504   -0.0541 S.o2      1 <0>         2.6884
      8 O1          3.8161   -2.2618   -0.5674 O.2       1 <0>        -0.9493
      9 O2          4.9497   -0.0444   -0.6091 O.2       1 <0>        -0.9345
     10 N1          4.3976   -1.1204    1.5459 N.pl3     1 <0>        -1.0494
     11 C7          3.5707   -1.8670    2.3932 C.ar      1 <0>         0.1427
     12 C8          2.9251   -2.9981    1.9155 C.ar      1 <0>        -0.1464
     13 C9          2.1094   -3.7339    2.7543 C.ar      1 <0>        -0.1204
     14 C10         1.9347   -3.3456    4.0697 C.ar      1 <0>        -0.1029
     15 C11         2.5751   -2.2192    4.5529 C.ar      1 <0>        -0.1127
     16 C12         3.3983   -1.4794    3.7202 C.ar      1 <0>         0.1125
     17 O3          4.0329   -0.3742    4.1956 O.3       1 <0>        -0.4873
     18 C13         1.4084   -4.9622    2.2338 C.3       1 <0>         0.1355
     19 H1          1.9642   -5.3667    1.3879 H         1 <0>         0.1378
     20 C14        -0.0058   -4.5900    1.7838 C.3       1 <0>        -0.0499
     21 N2         -0.6892   -5.7873    1.2763 N.4       1 <0>        -0.5038
     22 C15        -2.0470   -5.4300    0.8443 C.3       1 <0>         0.0263
     23 C16        -2.8652   -4.9778    2.0560 C.3       1 <0>        -0.1596
     24 C17        -4.2695   -4.5732    1.5967 C.3       1 <0>         0.1261
     25 N3         -4.8634   -5.6909    0.8506 N.pl3     1 <0>        -0.6360
     26 C18        -4.1172   -6.2622   -0.2788 C.3       1 <0>         0.1254
     27 C19        -2.7146   -6.6479    0.2016 C.3       1 <0>        -0.1594
     28 C20        -6.1134   -6.2011    1.2085 C.ar      1 <0>         0.2108
     29 C21        -6.8646   -5.5744    2.1948 C.ar      1 <0>        -0.1899
     30 C22        -8.1004   -6.0812    2.5459 C.ar      1 <0>        -0.0505
     31 C23        -8.5900   -7.2114    1.9173 C.ar      1 <0>        -0.1399
     32 C24        -7.8448   -7.8377    0.9351 C.ar      1 <0>        -0.0583
     33 C25        -6.6107   -7.3329    0.5751 C.ar      1 <0>        -0.1917
     34 C26        -9.9385   -7.7621    2.3038 C.3       1 <0>        -0.0511
     35 C27       -11.0202   -7.1202    1.4327 C.3       1 <0>        -0.0700
     36 C28       -12.4099   -7.5898    1.8395 C.2       1 <0>         0.5288
     37 O4        -12.7482   -8.7518    1.7675 O.2       1 <0>        -0.4556
     38 N4        -13.2225   -6.6429    2.2773 N.am      1 <0>        -0.6899
     39 C29       -12.8712   -5.3467    2.3671 C.2       1 <0>         0.5624
     40 O5        -13.5454   -4.4123    2.7550 O.2       1 <0>        -0.4133
     41 S2        -11.1824   -5.3199    1.7838 S.3       1 <0>        -0.1489
     42 O6          1.3357   -5.9441    3.2694 O.3       1 <0>        -0.5435
     43 H2         -0.9838    1.5964   -0.2766 H         1 <0>         0.1361
     44 H3          1.0825    2.9356   -0.2656 H         1 <0>         0.1403
     45 H4          3.2739    1.8171   -0.1659 H         1 <0>         0.1450
     46 H5          1.3328   -1.9798   -0.0956 H         1 <0>         0.1309
     47 H6         -0.8585   -0.8614   -0.1967 H         1 <0>         0.1305
     48 H7          5.2000   -0.7027    1.8959 H         1 <0>         0.4378
     49 H8          3.0596   -3.3034    0.8883 H         1 <0>         0.1697
     50 H9          1.2962   -3.9233    4.7215 H         1 <0>         0.1314
     51 H10         2.4365   -1.9186    5.5809 H         1 <0>         0.1447
     52 H11         3.5255    0.4432    4.0979 H         1 <0>         0.3986
     53 H12        -0.5616   -4.1855    2.6297 H         1 <0>         0.1401
     54 H13         0.0496   -3.8410    0.9938 H         1 <0>         0.1441
     55 H14        -0.1747   -6.1617    0.4933 H         1 <0>         0.4311
     56 H15        -1.9953   -4.6188    0.1181 H         1 <0>         0.1410
     57 H16        -2.9384   -5.7967    2.7717 H         1 <0>         0.0940
     58 H17        -2.3766   -4.1248    2.5271 H         1 <0>         0.0965
     59 H18        -4.8866   -4.3450    2.4657 H         1 <0>         0.1039
     60 H19        -4.2047   -3.6968    0.9517 H         1 <0>         0.0736
     61 H20        -4.6338   -7.1485   -0.6472 H         1 <0>         0.1050
     62 H21        -4.0399   -5.5236   -1.0767 H         1 <0>         0.0748
     63 H22        -2.1189   -6.9836   -0.6472 H         1 <0>         0.1005
     64 H23        -2.7892   -7.4510    0.9347 H         1 <0>         0.0938
     65 H24        -6.4825   -4.6921    2.6866 H         1 <0>         0.1237
     66 H25        -8.6849   -5.5944    3.3126 H         1 <0>         0.1306
     67 H26        -8.2301   -8.7202    0.4461 H         1 <0>         0.1280
     68 H27        -6.0312   -7.8199   -0.1953 H         1 <0>         0.1240
     69 H28        -9.9460   -8.8419    2.1557 H         1 <0>         0.1052
     70 H29       -10.1356   -7.5378    3.3521 H         1 <0>         0.0893
     71 H30       -10.8330   -7.3027    0.3745 H         1 <0>         0.1600
     72 H31       -14.1191   -6.8957    2.5476 H         1 <0>         0.4202
     73 H32         0.8538   -5.6520    4.0553 H         1 <0>         0.3877
     74 H33        -0.7405   -6.4806    2.0076 H         1 <0>         0.4311
@<TRIPOS>BOND
     1    1    6 ar
     2    1    2 ar
     3    1   43 1
     4    2    3 ar
     5    2   44 1
     6    3    4 ar
     7    3   45 1
     8    4    5 ar
     9    4    7 1
    10    5    6 ar
    11    5   46 1
    12    6   47 1
    13    7    8 2
    14    7    9 2
    15    7   10 1
    16   10   11 1
    17   10   48 1
    18   11   16 ar
    19   11   12 ar
    20   12   13 ar
    21   12   49 1
    22   13   14 ar
    23   13   18 1
    24   14   15 ar
    25   14   50 1
    26   15   16 ar
    27   15   51 1
    28   16   17 1
    29   17   52 1
    30   18   19 1
    31   18   20 1
    32   18   42 1
    33   20   21 1
    34   20   53 1
    35   20   54 1
    36   21   22 1
    37   21   55 1
    38   21   74 1
    39   22   27 1
    40   22   23 1
    41   22   56 1
    42   23   24 1
    43   23   57 1
    44   23   58 1
    45   24   25 1
    46   24   59 1
    47   24   60 1
    48   25   26 1
    49   25   28 1
    50   26   27 1
    51   26   61 1
    52   26   62 1
    53   27   63 1
    54   27   64 1
    55   28   33 ar
    56   28   29 ar
    57   29   30 ar
    58   29   65 1
    59   30   31 ar
    60   30   66 1
    61   31   32 ar
    62   31   34 1
    63   32   33 ar
    64   32   67 1
    65   33   68 1
    66   34   35 1
    67   34   69 1
    68   34   70 1
    69   35   41 1
    70   35   36 1
    71   35   71 1
    72   36   37 2
    73   36   38 am
    74   38   39 am
    75   38   72 1
    76   39   40 2
    77   39   41 1
    78   42   73 1
@<TRIPOS>MOLECULE
CHEMBL424167
   73    77     0     0     0
SMALL
USER_CHARGES

@<TRIPOS>ATOM
      1 C1         -0.0226    1.1057   -0.2372 C.ar      1 <0>        -0.0663
      2 C2          1.1374    1.8576   -0.2283 C.ar      1 <0>        -0.1383
      3 C3          2.3676    1.2297   -0.1722 C.ar      1 <0>        -0.0123
      4 C4          2.4379   -0.1500   -0.1245 C.ar      1 <0>        -0.6640
      5 C5          1.2779   -0.9019   -0.1325 C.ar      1 <0>        -0.0172
      6 C6          0.0477   -0.2740   -0.1901 C.ar      1 <0>        -0.1480
      7 S1          4.0061   -0.9504   -0.0541 S.o2      1 <0>         2.6866
      8 O1          3.8161   -2.2618   -0.5674 O.2       1 <0>        -0.9650
      9 O2          4.9497   -0.0444   -0.6091 O.2       1 <0>        -0.9648
     10 N1          4.3976   -1.1204    1.5459 N.pl3     1 <0>        -1.0221
     11 C7          3.5707   -1.8670    2.3932 C.ar      1 <0>         0.0011
     12 C8          2.9251   -2.9981    1.9155 C.ar      1 <0>        -0.1001
     13 C9          2.1094   -3.7339    2.7543 C.ar      1 <0>        -0.2768
     14 C10         1.9347   -3.3456    4.0697 C.ar      1 <0>        -0.0558
     15 C11         2.5751   -2.2192    4.5529 C.ar      1 <0>        -0.2502
     16 C12         3.3983   -1.4794    3.7202 C.ar      1 <0>         0.2808
     17 O3          4.0329   -0.3742    4.1956 O.3       1 <0>        -0.6940
     18 C13         1.4084   -4.9622    2.2338 C.3       1 <0>         0.1618
     19 H1          1.9642   -5.3667    1.3879 H         1 <0>         0.1167
     20 C14        -0.0058   -4.5900    1.7838 C.3       1 <0>        -0.0497
     21 N2         -0.6892   -5.7873    1.2763 N.4       1 <0>        -0.5043
     22 C15        -2.0470   -5.4300    0.8443 C.3       1 <0>         0.0261
     23 C16        -2.8652   -4.9778    2.0560 C.3       1 <0>        -0.1598
     24 C17        -4.2695   -4.5732    1.5967 C.3       1 <0>         0.1257
     25 N3         -4.8634   -5.6909    0.8506 N.pl3     1 <0>        -0.6345
     26 C18        -4.1172   -6.2622   -0.2788 C.3       1 <0>         0.1257
     27 C19        -2.7146   -6.6479    0.2016 C.3       1 <0>        -0.1588
     28 C20        -6.1134   -6.2011    1.2085 C.ar      1 <0>         0.2164
     29 C21        -6.8646   -5.5744    2.1948 C.ar      1 <0>        -0.1912
     30 C22        -8.1004   -6.0812    2.5459 C.ar      1 <0>        -0.0500
     31 C23        -8.5900   -7.2114    1.9173 C.ar      1 <0>        -0.1463
     32 C24        -7.8448   -7.8377    0.9351 C.ar      1 <0>        -0.0584
     33 C25        -6.6107   -7.3329    0.5751 C.ar      1 <0>        -0.1944
     34 C26        -9.9385   -7.7621    2.3038 C.3       1 <0>        -0.0491
     35 C27       -11.0202   -7.1202    1.4327 C.3       1 <0>        -0.0705
     36 C28       -12.4099   -7.5898    1.8395 C.2       1 <0>         0.5293
     37 O4        -12.7482   -8.7518    1.7675 O.2       1 <0>        -0.4578
     38 N4        -13.2225   -6.6429    2.2773 N.am      1 <0>        -0.6902
     39 C29       -12.8712   -5.3467    2.3671 C.2       1 <0>         0.5607
     40 O5        -13.5454   -4.4123    2.7550 O.2       1 <0>        -0.4154
     41 S2        -11.1824   -5.3199    1.7838 S.3       1 <0>        -0.1436
     42 O6          1.3357   -5.9441    3.2694 O.3       1 <0>        -0.5586
     43 H2         -0.9839    1.5964   -0.2766 H         1 <0>         0.1288
     44 H3          1.0825    2.9356   -0.2656 H         1 <0>         0.1334
     45 H4          3.2739    1.8171   -0.1659 H         1 <0>         0.1406
     46 H5          1.3328   -1.9798   -0.0956 H         1 <0>         0.1312
     47 H6         -0.8585   -0.8614   -0.1967 H         1 <0>         0.1245
     48 H7          5.2000   -0.7027    1.8959 H         1 <0>         0.4262
     49 H8          3.0596   -3.3034    0.8883 H         1 <0>         0.1366
     50 H9          1.2962   -3.9233    4.7215 H         1 <0>         0.0921
     51 H10         2.4365   -1.9186    5.5809 H         1 <0>         0.1057
     52 H11        -0.5616   -4.1855    2.6297 H         1 <0>         0.1337
     53 H12         0.0496   -3.8410    0.9938 H         1 <0>         0.1382
     54 H13        -0.1747   -6.1617    0.4933 H         1 <0>         0.4269
     55 H14        -1.9953   -4.6188    0.1181 H         1 <0>         0.1386
     56 H15        -2.9384   -5.7967    2.7717 H         1 <0>         0.0918
     57 H16        -2.3766   -4.1248    2.5271 H         1 <0>         0.1011
     58 H17        -4.8866   -4.3450    2.4657 H         1 <0>         0.1024
     59 H18        -4.2047   -3.6968    0.9517 H         1 <0>         0.0746
     60 H19        -4.6338   -7.1485   -0.6472 H         1 <0>         0.1020
     61 H20        -4.0399   -5.5236   -1.0767 H         1 <0>         0.0744
     62 H21        -2.1189   -6.9836   -0.6472 H         1 <0>         0.0987
     63 H22        -2.7892   -7.4510    0.9347 H         1 <0>         0.0915
     64 H23        -6.4825   -4.6921    2.6866 H         1 <0>         0.1250
     65 H24        -8.6849   -5.5944    3.3126 H         1 <0>         0.1294
     66 H25        -8.2301   -8.7202    0.4461 H         1 <0>         0.1261
     67 H26        -6.0312   -7.8199   -0.1953 H         1 <0>         0.1238
     68 H27        -9.9460   -8.8419    2.1557 H         1 <0>         0.1040
     69 H28       -10.1356   -7.5378    3.3521 H         1 <0>         0.0882
     70 H29       -10.8330   -7.3027    0.3745 H         1 <0>         0.1600
     71 H30       -14.1191   -6.8957    2.5476 H         1 <0>         0.4188
     72 H31         0.8538   -5.6520    4.0553 H         1 <0>         0.3811
     73 H32        -0.7405   -6.4806    2.0076 H         1 <0>         0.4270
@<TRIPOS>BOND
     1    1    6 ar
     2    1    2 ar
     3    1   43 1
     4    2    3 ar
     5    2   44 1
     6    3    4 ar
     7    3   45 1
     8    4    5 ar
     9    4    7 1
    10    5    6 ar
    11    5   46 1
    12    6   47 1
    13    7    8 2
    14    7    9 2
    15    7   10 1
    16   10   11 1
    17   10   48 1
    18   11   16 ar
    19   11   12 ar
    20   12   13 ar
    21   12   49 1
    22   13   14 ar
    23   13   18 1
    24   14   15 ar
    25   14   50 1
    26   15   16 ar
    27   15   51 1
    28   16   17 1
    29   18   19 1
    30   18   20 1
    31   18   42 1
    32   20   21 1
    33   20   52 1
    34   20   53 1
    35   21   22 1
    36   21   54 1
    37   21   73 1
    38   22   27 1
    39   22   23 1
    40   22   55 1
    41   23   24 1
    42   23   56 1
    43   23   57 1
    44   24   25 1
    45   24   58 1
    46   24   59 1
    47   25   26 1
    48   25   28 1
    49   26   27 1
    50   26   60 1
    51   26   61 1
    52   27   62 1
    53   27   63 1
    54   28   33 ar
    55   28   29 ar
    56   29   30 ar
    57   29   64 1
    58   30   31 ar
    59   30   65 1
    60   31   32 ar
    61   31   34 1
    62   32   33 ar
    63   32   66 1
    64   33   67 1
    65   34   35 1
    66   34   68 1
    67   34   69 1
    68   35   41 1
    69   35   36 1
    70   35   70 1
    71   36   37 2
    72   36   38 am
    73   38   39 am
    74   38   71 1
    75   39   40 2
    76   39   41 1
    77   42   72 1
@<TRIPOS>MOLECULE
CHEMBL12674
   63    65     0     0     0
SMALL
USER_CHARGES

@<TRIPOS>ATOM
      1 C1         -0.0167    1.3781    0.0096 C.ar      1 <0>        -0.1269
      2 C2          1.1709    2.0855    0.0021 C.ar      1 <0>        -0.1183
      3 C3          2.3773    1.4107   -0.0130 C.ar      1 <0>        -0.1178
      4 C4          2.3960    0.0285   -0.0201 C.ar      1 <0>        -0.0700
      5 C5          1.2084   -0.6789   -0.0117 C.ar      1 <0>        -0.1174
      6 C6          0.0021   -0.0041    0.0020 C.ar      1 <0>        -0.1179
      7 C7          3.7112   -0.7071   -0.0376 C.3       1 <0>        -0.0737
      8 C8          4.1714   -0.9633    1.3989 C.3       1 <0>        -0.5894
      9 S1          5.7544   -1.8488    1.3779 S.o2      1 <0>         2.5321
     10 O1          5.5735   -3.1627    0.8679 O.2       1 <0>        -1.0227
     11 O2          6.7790   -1.0077    0.8660 O.2       1 <0>        -1.0252
     12 N1          6.1426   -2.0645    2.9733 N.2       1 <0>        -1.0925
     13 C9          7.3232   -2.7246    3.3217 C.ar      1 <0>         0.2998
     14 C10         8.1757   -3.1957    2.3312 C.ar      1 <0>        -0.2583
     15 C11         9.3424   -3.8475    2.6792 C.ar      1 <0>        -0.0508
     16 C12         9.6622   -4.0318    4.0119 C.ar      1 <0>        -0.2388
     17 C13         8.8158   -3.5641    5.0004 C.ar      1 <0>        -0.0646
     18 C14         7.6503   -2.9064    4.6594 C.ar      1 <0>        -0.1850
     19 C15        10.9358   -4.7444    4.3878 C.3       1 <0>        -0.0705
     20 C16        12.0699   -3.7260    4.5205 C.3       1 <0>        -0.0108
     21 N2         13.3113   -4.4207    4.8869 N.4       1 <0>        -0.5038
     22 C17        14.4002   -3.4429    5.0143 C.3       1 <0>        -0.0418
     23 C18        15.6932   -4.1664    5.3960 C.3       1 <0>         0.0863
     24 H1         15.9453   -4.8922    4.6228 H         1 <0>         0.1348
     25 C19        16.8274   -3.1480    5.5287 C.3       1 <0>         0.0285
     26 O3         18.0575   -3.8339    5.7702 O.3       1 <0>        -0.3012
     27 C20        19.1728   -3.0692    5.9136 C.ar      1 <0>         0.1123
     28 C21        19.0821   -1.6878    5.8291 C.ar      1 <0>        -0.1913
     29 C22        20.2150   -0.9110    5.9748 C.ar      1 <0>        -0.1052
     30 C23        21.4432   -1.5125    6.2060 C.ar      1 <0>         0.0763
     31 C24        21.5338   -2.8939    6.2915 C.ar      1 <0>        -0.1034
     32 C25        20.4002   -3.6704    6.1501 C.ar      1 <0>        -0.1279
     33 O4         22.5586   -0.7479    6.3485 O.3       1 <0>        -0.4963
     34 O5         15.5112   -4.8417    6.6421 O.3       1 <0>        -0.5445
     35 H2         -0.9591    1.9053    0.0259 H         1 <0>         0.1207
     36 H3          1.1563    3.1654    0.0076 H         1 <0>         0.1219
     37 H4          3.3051    1.9634   -0.0196 H         1 <0>         0.1231
     38 H5          1.2231   -1.7588   -0.0176 H         1 <0>         0.1236
     39 H6         -0.9258   -0.5567    0.0082 H         1 <0>         0.1222
     40 H7          3.5884   -1.6586   -0.5549 H         1 <0>         0.0837
     41 H8          4.4573   -0.1052   -0.5563 H         1 <0>         0.0833
     42 H9          4.2941   -0.0118    1.9163 H         1 <0>         0.1233
     43 H10         3.4252   -1.5652    1.9176 H         1 <0>         0.1239
     44 H11         7.9261   -3.0526    1.2902 H         1 <0>         0.1046
     45 H12        10.0056   -4.2140    1.9097 H         1 <0>         0.1002
     46 H13         9.0685   -3.7098    6.0403 H         1 <0>         0.1032
     47 H14         6.9919   -2.5374    5.4319 H         1 <0>         0.1152
     48 H15        10.7969   -5.2595    5.3383 H         1 <0>         0.0802
     49 H16        11.1878   -5.4702    3.6146 H         1 <0>         0.0793
     50 H17        12.2087   -3.2109    3.5700 H         1 <0>         0.1310
     51 H18        11.8179   -3.0002    5.2937 H         1 <0>         0.1309
     52 H19        13.1828   -4.8975    5.7668 H         1 <0>         0.4300
     53 H20        14.5391   -2.9278    4.0638 H         1 <0>         0.1454
     54 H21        14.1482   -2.7171    5.7875 H         1 <0>         0.1381
     55 H22        16.9077   -2.5715    4.6071 H         1 <0>         0.0826
     56 H23        16.6167   -2.4759    6.3605 H         1 <0>         0.0770
     57 H24        18.1257   -1.2194    5.6490 H         1 <0>         0.1302
     58 H25        20.1445    0.1646    5.9082 H         1 <0>         0.1348
     59 H26        22.4902   -3.3622    6.4712 H         1 <0>         0.1401
     60 H27        20.4701   -4.7458    6.2204 H         1 <0>         0.1382
     61 H28        22.7392   -0.4818    7.2605 H         1 <0>         0.3922
     62 H29        15.2842   -4.2561    7.3774 H         1 <0>         0.3893
     63 H30        13.5446   -5.0925    4.1712 H         1 <0>         0.4278
@<TRIPOS>BOND
     1    1    6 ar
     2    1    2 ar
     3    1   35 1
     4    2    3 ar
     5    2   36 1
     6    3    4 ar
     7    3   37 1
     8    4    5 ar
     9    4    7 1
    10    5    6 ar
    11    5   38 1
    12    6   39 1
    13    7    8 1
    14    7   40 1
    15    7   41 1
    16    8    9 1
    17    8   42 1
    18    8   43 1
    19    9   10 2
    20    9   11 2
    21    9   12 1
    22   12   13 1
    23   13   18 ar
    24   13   14 ar
    25   14   15 ar
    26   14   44 1
    27   15   16 ar
    28   15   45 1
    29   16   17 ar
    30   16   19 1
    31   17   18 ar
    32   17   46 1
    33   18   47 1
    34   19   20 1
    35   19   48 1
    36   19   49 1
    37   20   21 1
    38   20   50 1
    39   20   51 1
    40   21   22 1
    41   21   52 1
    42   21   63 1
    43   22   23 1
    44   22   53 1
    45   22   54 1
    46   23   24 1
    47   23   25 1
    48   23   34 1
    49   25   26 1
    50   25   55 1
    51   25   56 1
    52   26   27 1
    53   27   32 ar
    54   27   28 ar
    55   28   29 ar
    56   28   57 1
    57   29   30 ar
    58   29   58 1
    59   30   31 ar
    60   30   33 1
    61   31   32 ar
    62   31   59 1
    63   32   60 1
    64   33   61 1
    65   34   62 1
@<TRIPOS>MOLECULE
CHEMBL1084772
   72    78     0     0     0
SMALL
USER_CHARGES

@<TRIPOS>ATOM
      1 C1         -0.0166    1.3740    0.0096 C.ar      1 <0>        -0.1468
      2 C2          1.1714    2.0887    0.0021 C.ar      1 <0>        -0.0826
      3 C3          2.3836    1.4330   -0.0130 C.ar      1 <0>        -0.1382
      4 C4          2.4231    0.0421   -0.0214 C.ar      1 <0>         0.1336
      5 C5          1.2202   -0.6796   -0.0138 C.ar      1 <0>        -0.0922
      6 C6          0.0021   -0.0041    0.0020 C.ar      1 <0>        -0.0604
      7 C7          1.5889   -2.1068   -0.0256 C.ar      1 <0>        -0.1299
      8 C8          2.9901   -2.1563   -0.0395 C.ar      1 <0>         0.1818
      9 N1          3.4726   -0.8597   -0.0368 N.pl3     1 <0>        -0.6122
     10 H1          4.4118   -0.6174   -0.0448 H         1 <0>         0.4225
     11 C9          3.6293   -3.3927   -0.0533 C.ar      1 <0>        -0.1713
     12 C10         2.8884   -4.5554   -0.0536 C.ar      1 <0>        -0.0442
     13 C11         1.5040   -4.5098   -0.0403 C.ar      1 <0>        -0.2457
     14 C12         0.8481   -3.2912   -0.0258 C.ar      1 <0>         0.1794
     15 O1         -0.5096   -3.2469   -0.0123 O.3       1 <0>        -0.2955
     16 C13        -1.1995   -4.4984   -0.0135 C.3       1 <0>         0.0289
     17 C14        -2.7089   -4.2486    0.0028 C.3       1 <0>         0.0860
     18 C15        -3.4455   -5.5839    0.1273 C.3       1 <0>        -0.0434
     19 N2         -4.8947   -5.3441    0.1428 N.4       1 <0>        -0.3770
     20 C16        -5.2500   -4.5814    1.3456 C.3       1 <0>        -0.0106
     21 C17        -6.7457   -4.2589    1.3263 C.3       1 <0>        -0.1365
     22 C18        -7.5437   -5.5656    1.2943 C.3       1 <0>        -0.1144
     23 C19        -7.1112   -6.3867    0.0760 C.3       1 <0>        -0.1408
     24 C20        -5.6019   -6.6303    0.1417 C.3       1 <0>        -0.0048
     25 C21        -9.0376   -5.2506    1.1948 C.3       1 <0>         0.0995
     26 N3         -9.8060   -6.4946    1.2844 N.am      1 <0>        -0.5621
     27 C22       -10.0881   -7.1655    0.1514 C.2       1 <0>         0.5748
     28 O2         -9.7049   -6.7331   -0.9187 O.2       1 <0>        -0.4958
     29 C23       -10.8562   -8.4182    0.2011 C.ar      1 <0>        -0.1758
     30 C24       -11.1689   -9.1412   -0.9407 C.ar      1 <0>         0.0028
     31 C25       -11.8983  -10.3203   -0.8425 C.ar      1 <0>        -0.1430
     32 C26       -12.3250  -10.7994    0.3628 C.ar      1 <0>        -0.0376
     33 C27       -12.0291  -10.0968    1.5439 C.ar      1 <0>        -0.0793
     34 C28       -11.2896   -8.8988    1.4576 C.ar      1 <0>         0.0112
     35 C29       -10.9764   -8.1692    2.6269 C.ar      1 <0>        -0.1740
     36 C30       -11.4062   -8.6491    3.8553 C.ar      1 <0>         0.0037
     37 C31       -12.1339   -9.8311    3.9273 C.ar      1 <0>        -0.1407
     38 C32       -12.4454  -10.5489    2.8083 C.ar      1 <0>        -0.0394
     39 C33       -10.1995   -6.9277    2.4972 C.2       1 <0>         0.5729
     40 O3         -9.9145   -6.2861    3.4902 O.2       1 <0>        -0.4888
     41 O4         -3.0977   -3.6015   -1.2105 O.3       1 <0>        -0.5419
     42 H2         -0.9602    1.8991    0.0259 H         1 <0>         0.1275
     43 H3          1.1468    3.1684    0.0078 H         1 <0>         0.1319
     44 H4          3.3033    1.9990   -0.0188 H         1 <0>         0.1270
     45 H5         -0.9248   -0.5584    0.0079 H         1 <0>         0.1253
     46 H6          4.7082   -3.4413   -0.0642 H         1 <0>         0.1304
     47 H7          3.3921   -5.5107   -0.0647 H         1 <0>         0.1351
     48 H8          0.9349   -5.4277   -0.0410 H         1 <0>         0.1278
     49 H9         -0.9336   -5.0590   -0.9096 H         1 <0>         0.0782
     50 H10        -0.9163   -5.0702    0.8702 H         1 <0>         0.0825
     51 H11        -2.9629   -3.6131    0.8511 H         1 <0>         0.1346
     52 H12        -3.1914   -6.2194   -0.7210 H         1 <0>         0.1390
     53 H13        -3.1489   -6.0775    1.0527 H         1 <0>         0.1440
     54 H14        -5.0175   -5.1720    2.2317 H         1 <0>         0.1303
     55 H15        -4.6790   -3.6532    1.3686 H         1 <0>         0.1357
     56 H16        -7.0079   -3.6942    2.2209 H         1 <0>         0.1188
     57 H17        -6.9793   -3.6681    0.4406 H         1 <0>         0.0955
     58 H18        -7.3496   -6.1336    2.2041 H         1 <0>         0.0944
     59 H19        -7.6346   -7.3428    0.0771 H         1 <0>         0.1044
     60 H20        -7.3524   -5.8400   -0.8356 H         1 <0>         0.1011
     61 H21        -5.2907   -7.2147   -0.7242 H         1 <0>         0.1318
     62 H22        -5.3619   -7.1772    1.0534 H         1 <0>         0.1277
     63 H23        -9.3241   -4.5869    2.0106 H         1 <0>         0.1090
     64 H24        -9.2436   -4.7641    0.2413 H         1 <0>         0.1058
     65 H25       -10.8453   -8.7868   -1.9082 H         1 <0>         0.1463
     66 H26       -12.1335  -10.8707   -1.7414 H         1 <0>         0.1430
     67 H27       -12.8904  -11.7184    0.4087 H         1 <0>         0.1451
     68 H28       -11.1746   -8.1032    4.7580 H         1 <0>         0.1473
     69 H29       -12.4608  -10.1907    4.8918 H         1 <0>         0.1438
     70 H30       -13.0125  -11.4640    2.8945 H         1 <0>         0.1453
     71 H31        -2.9014   -4.1111   -2.0085 H         1 <0>         0.3900
     72 H32        -5.1561   -4.8169   -0.6768 H         1 <0>         0.4288
@<TRIPOS>BOND
     1    1    6 ar
     2    1    2 ar
     3    1   42 1
     4    2    3 ar
     5    2   43 1
     6    3    4 ar
     7    3   44 1
     8    4    9 1
     9    4    5 ar
    10    5    6 ar
    11    5    7 1
    12    6   45 1
    13    7   14 ar
    14    7    8 ar
    15    8    9 1
    16    8   11 ar
    17    9   10 1
    18   11   12 ar
    19   11   46 1
    20   12   13 ar
    21   12   47 1
    22   13   14 ar
    23   13   48 1
    24   14   15 1
    25   15   16 1
    26   16   17 1
    27   16   49 1
    28   16   50 1
    29   17   18 1
    30   17   41 1
    31   17   51 1
    32   18   19 1
    33   18   52 1
    34   18   53 1
    35   19   24 1
    36   19   20 1
    37   19   72 1
    38   20   21 1
    39   20   54 1
    40   20   55 1
    41   21   22 1
    42   21   56 1
    43   21   57 1
    44   22   23 1
    45   22   25 1
    46   22   58 1
    47   23   24 1
    48   23   59 1
    49   23   60 1
    50   24   61 1
    51   24   62 1
    52   25   26 1
    53   25   63 1
    54   25   64 1
    55   26   39 am
    56   26   27 am
    57   27   28 2
    58   27   29 1
    59   29   34 ar
    60   29   30 ar
    61   30   31 ar
    62   30   65 1
    63   31   32 ar
    64   31   66 1
    65   32   33 ar
    66   32   67 1
    67   33   38 ar
    68   33   34 ar
    69   34   35 ar
    70   35   36 ar
    71   35   39 1
    72   36   37 ar
    73   36   68 1
    74   37   38 ar
    75   37   69 1
    76   38   70 1
    77   39   40 2
    78   41   71 1
@<TRIPOS>MOLECULE
CHEMBL1084772
   72    78     0     0     0
SMALL
USER_CHARGES

@<TRIPOS>ATOM
      1 C1         -1.3614   -9.0235   -6.7564 C.ar      1 <0>        -0.1468
      2 C2         -0.3595   -9.6540   -7.4782 C.ar      1 <0>        -0.0826
      3 C3          0.9008   -9.8066   -6.9416 C.ar      1 <0>        -0.1382
      4 C4          1.1772   -9.3266   -5.6650 C.ar      1 <0>         0.1337
      5 C5          0.1625   -8.6889   -4.9360 C.ar      1 <0>        -0.0922
      6 C6         -1.1068   -8.5410   -5.4907 C.ar      1 <0>        -0.0604
      7 C7          0.7567   -8.3007   -3.6441 C.ar      1 <0>        -0.1301
      8 C8          2.0917   -8.7284   -3.6750 C.ar      1 <0>         0.1819
      9 N1          2.3256   -9.3407   -4.8932 N.pl3     1 <0>        -0.6122
     10 H1          3.1731   -9.7252   -5.1670 H         1 <0>         0.4225
     11 C9          2.9091   -8.4941   -2.5730 C.ar      1 <0>        -0.1714
     12 C10         2.4072   -7.8477   -1.4633 C.ar      1 <0>        -0.0441
     13 C11         1.0887   -7.4244   -1.4297 C.ar      1 <0>        -0.2457
     14 C12         0.2587   -7.6465   -2.5147 C.ar      1 <0>         0.1794
     15 O1         -1.0342   -7.2308   -2.4813 O.3       1 <0>        -0.2955
     16 C13        -1.4725   -6.5691   -1.2930 C.3       1 <0>         0.0292
     17 C14        -2.9443   -6.1779   -1.4404 C.3       1 <0>         0.0857
     18 C15        -3.4479   -5.5823   -0.1242 C.3       1 <0>        -0.0432
     19 N2         -4.8651   -5.2205   -0.2609 N.4       1 <0>        -0.3773
     20 C16        -5.3059   -4.5105    0.9457 C.3       1 <0>        -0.0038
     21 C17        -6.7584   -4.0602    0.7752 C.3       1 <0>        -0.1379
     22 C18        -7.6449   -5.2887    0.5513 C.3       1 <0>        -0.1147
     23 C19        -7.1304   -6.0624   -0.6660 C.3       1 <0>        -0.1392
     24 C20        -5.6641   -6.4384   -0.4420 C.3       1 <0>        -0.0112
     25 C21        -9.0863   -4.8407    0.3010 C.3       1 <0>         0.0998
     26 N3         -9.9538   -6.0174    0.2058 N.am      1 <0>        -0.5621
     27 C22       -10.1451   -6.5861   -0.9997 C.2       1 <0>         0.5743
     28 O2         -9.6007   -6.1191   -1.9818 O.2       1 <0>        -0.4943
     29 C23       -11.0080   -7.7688   -1.1351 C.ar      1 <0>        -0.1757
     30 C24       -11.2326   -8.3860   -2.3568 C.ar      1 <0>         0.0032
     31 C25       -12.0574   -9.5020   -2.4341 C.ar      1 <0>        -0.1426
     32 C26       -12.6652  -10.0206   -1.3268 C.ar      1 <0>        -0.0378
     33 C27       -12.4637   -9.4248   -0.0696 C.ar      1 <0>        -0.0793
     34 C28       -11.6288   -8.2916    0.0220 C.ar      1 <0>         0.0112
     35 C29       -11.4067   -7.6696    1.2717 C.ar      1 <0>        -0.1740
     36 C30       -12.0204   -8.1902    2.4014 C.ar      1 <0>         0.0035
     37 C31       -12.8406   -9.3075    2.2982 C.ar      1 <0>        -0.1410
     38 C32       -13.0664   -9.9211    1.0995 C.ar      1 <0>        -0.0392
     39 C33       -10.5261   -6.4935    1.3279 C.2       1 <0>         0.5733
     40 O3        -10.3169   -5.9451    2.3930 O.2       1 <0>        -0.4898
     41 O4         -3.0778   -5.2101   -2.4832 O.3       1 <0>        -0.5412
     42 H2         -2.3438   -8.9060   -7.1894 H         1 <0>         0.1275
     43 H3         -0.5685  -10.0292   -8.4691 H         1 <0>         0.1319
     44 H4          1.6742  -10.2992   -7.5121 H         1 <0>         0.1270
     45 H5         -1.8889   -8.0502   -4.9306 H         1 <0>         0.1252
     46 H6          3.9387   -8.8197   -2.5870 H         1 <0>         0.1304
     47 H7          3.0480   -7.6701   -0.6123 H         1 <0>         0.1351
     48 H8          0.7074   -6.9194   -0.5544 H         1 <0>         0.1278
     49 H9         -1.3582   -7.2391   -0.4409 H         1 <0>         0.0823
     50 H10        -0.8726   -5.6731   -1.1338 H         1 <0>         0.0784
     51 H11        -3.5322   -7.0619   -1.6877 H         1 <0>         0.1335
     52 H12        -3.3357   -6.3167    0.6735 H         1 <0>         0.1438
     53 H13        -2.8673   -4.6920    0.1174 H         1 <0>         0.1398
     54 H14        -5.2308   -5.1756    1.8060 H         1 <0>         0.1301
     55 H15        -4.6720   -3.6382    1.1054 H         1 <0>         0.1342
     56 H16        -7.0844   -3.5348    1.6728 H         1 <0>         0.1190
     57 H17        -6.8346   -3.3948   -0.0848 H         1 <0>         0.0947
     58 H18        -7.6090   -5.9296    1.4323 H         1 <0>         0.0945
     59 H19        -7.7223   -6.9681   -0.7985 H         1 <0>         0.1042
     60 H20        -7.2143   -5.4385   -1.5558 H         1 <0>         0.1018
     61 H21        -5.2947   -6.9896   -1.3068 H         1 <0>         0.1330
     62 H22        -5.5813   -7.0624    0.4478 H         1 <0>         0.1279
     63 H23        -9.4190   -4.2098    1.1252 H         1 <0>         0.1086
     64 H24        -9.1350   -4.2771   -0.6307 H         1 <0>         0.1057
     65 H25       -10.7657   -7.9982   -3.2502 H         1 <0>         0.1466
     66 H26       -12.2219   -9.9702   -3.3933 H         1 <0>         0.1432
     67 H27       -13.3014  -10.8887   -1.4170 H         1 <0>         0.1451
     68 H28       -11.8603   -7.7264    3.3635 H         1 <0>         0.1471
     69 H29       -13.3108   -9.7000    3.1878 H         1 <0>         0.1436
     70 H30       -13.7088  -10.7878    1.0494 H         1 <0>         0.1452
     71 H31        -2.5800   -4.3954   -2.3297 H         1 <0>         0.3896
     72 H32        -4.9820   -4.6203   -1.0635 H         1 <0>         0.4289
@<TRIPOS>BOND
     1    1    6 ar
     2    1    2 ar
     3    1   42 1
     4    2    3 ar
     5    2   43 1
     6    3    4 ar
     7    3   44 1
     8    4    9 1
     9    4    5 ar
    10    5    6 ar
    11    5    7 1
    12    6   45 1
    13    7   14 ar
    14    7    8 ar
    15    8    9 1
    16    8   11 ar
    17    9   10 1
    18   11   12 ar
    19   11   46 1
    20   12   13 ar
    21   12   47 1
    22   13   14 ar
    23   13   48 1
    24   14   15 1
    25   15   16 1
    26   16   17 1
    27   16   49 1
    28   16   50 1
    29   17   18 1
    30   17   41 1
    31   17   51 1
    32   18   19 1
    33   18   52 1
    34   18   53 1
    35   19   24 1
    36   19   20 1
    37   19   72 1
    38   20   21 1
    39   20   54 1
    40   20   55 1
    41   21   22 1
    42   21   56 1
    43   21   57 1
    44   22   23 1
    45   22   25 1
    46   22   58 1
    47   23   24 1
    48   23   59 1
    49   23   60 1
    50   24   61 1
    51   24   62 1
    52   25   26 1
    53   25   63 1
    54   25   64 1
    55   26   39 am
    56   26   27 am
    57   27   28 2
    58   27   29 1
    59   29   34 ar
    60   29   30 ar
    61   30   31 ar
    62   30   65 1
    63   31   32 ar
    64   31   66 1
    65   32   33 ar
    66   32   67 1
    67   33   38 ar
    68   33   34 ar
    69   34   35 ar
    70   35   36 ar
    71   35   39 1
    72   36   37 ar
    73   36   68 1
    74   37   38 ar
    75   37   69 1
    76   38   70 1
    77   39   40 2
    78   41   71 1
@<TRIPOS>MOLECULE
CHEMBL13278
   64    67     0     0     0
SMALL
USER_CHARGES

@<TRIPOS>ATOM
      1 C1          8.3030   -9.6427   -0.4751 C.ar      1 <0>        -0.0940
      2 C2          6.9224   -9.6605   -0.6653 C.ar      1 <0>        -0.1191
      3 C3          6.1948   -8.5111   -0.6260 C.ar      1 <0>        -0.0956
      4 C4          6.8420   -7.2862   -0.3899 C.ar      1 <0>        -0.0789
      5 C5          6.1242   -6.0789   -0.3417 C.ar      1 <0>         0.0179
      6 C6          6.7847   -4.9116   -0.1104 C.ar      1 <0>        -0.6688
      7 C7          8.1653   -4.8939    0.0801 C.ar      1 <0>        -0.0443
      8 C8          8.8929   -6.0433    0.0403 C.ar      1 <0>        -0.1123
      9 C9          8.2457   -7.2681   -0.1961 C.ar      1 <0>        -0.0104
     10 C10         8.9635   -8.4754   -0.2443 C.ar      1 <0>        -0.1145
     11 S1          5.8810   -3.4002   -0.0514 S.o2      1 <0>         2.6860
     12 O1          6.7696   -2.3786   -0.4828 O.2       1 <0>        -0.9396
     13 O2          4.6357   -3.6463   -0.6900 O.2       1 <0>        -0.9458
     14 N1          5.5440   -3.0931    1.5406 N.pl3     1 <0>        -1.0677
     15 C11         4.7449   -3.9777    2.2685 C.ar      1 <0>         0.1432
     16 C12         3.3711   -4.0038    2.0644 C.ar      1 <0>        -0.1008
     17 C13         2.5840   -4.8800    2.7855 C.ar      1 <0>        -0.0986
     18 C14         3.1619   -5.7304    3.7102 C.ar      1 <0>        -0.1015
     19 C15         4.5292   -5.7070    3.9159 C.ar      1 <0>        -0.1007
     20 C16         5.3229   -4.8373    3.1941 C.ar      1 <0>        -0.1065
     21 C17         2.2997   -6.6845    4.4959 C.3       1 <0>        -0.1023
     22 C18         2.1789   -8.0068    3.7358 C.3       1 <0>        -0.0085
     23 N2          1.3384   -8.9368    4.5017 N.4       1 <0>        -0.5038
     24 C19         1.2223  -10.2064    3.7719 C.3       1 <0>        -0.0421
     25 C20         0.3470  -11.1751    4.5696 C.3       1 <0>         0.0856
     26 H1         -0.6441  -10.7419    4.7049 H         1 <0>         0.1367
     27 C21         0.2261  -12.4974    3.8095 C.3       1 <0>         0.0289
     28 O3         -0.6838  -13.3597    4.4954 O.3       1 <0>        -0.3010
     29 C22        -0.9056  -14.5844    3.9477 C.ar      1 <0>         0.1086
     30 C23        -0.2559  -14.9489    2.7778 C.ar      1 <0>        -0.1913
     31 C24        -0.4812  -16.1929    2.2214 C.ar      1 <0>        -0.1062
     32 C25        -1.3569  -17.0778    2.8329 C.ar      1 <0>         0.0807
     33 C26        -2.0060  -16.7137    4.0033 C.ar      1 <0>        -0.1026
     34 C27        -1.7773  -15.4712    4.5620 C.ar      1 <0>        -0.1258
     35 O4         -1.5794  -18.3021    2.2846 O.3       1 <0>        -0.4956
     36 O5          0.9415  -11.4127    5.8471 O.3       1 <0>        -0.5431
     37 H2          8.8564  -10.5697   -0.5070 H         1 <0>         0.1308
     38 H3          6.4226  -10.6006   -0.8469 H         1 <0>         0.1282
     39 H4          5.1256   -8.5402   -0.7758 H         1 <0>         0.1298
     40 H5          5.0542   -6.0773   -0.4879 H         1 <0>         0.1441
     41 H6          8.6651   -3.9539    0.2616 H         1 <0>         0.1406
     42 H7          9.9622   -6.0142    0.1893 H         1 <0>         0.1397
     43 H8         10.0336   -8.4769   -0.0984 H         1 <0>         0.1355
     44 H9          5.9015   -2.2989    1.9676 H         1 <0>         0.4316
     45 H10         2.9190   -3.3394    1.3429 H         1 <0>         0.1436
     46 H11         1.5159   -4.9008    2.6273 H         1 <0>         0.1335
     47 H12         4.9774   -6.3725    4.6388 H         1 <0>         0.1307
     48 H13         6.3912   -4.8227    3.3519 H         1 <0>         0.1359
     49 H14         2.7532   -6.8657    5.4704 H         1 <0>         0.0990
     50 H15         1.3087   -6.2513    4.6312 H         1 <0>         0.0999
     51 H16         1.7254   -7.8256    2.7613 H         1 <0>         0.1363
     52 H17         3.1699   -8.4400    3.6005 H         1 <0>         0.1344
     53 H18         1.7582   -9.1046    5.4038 H         1 <0>         0.4338
     54 H19         0.7689  -10.0252    2.7974 H         1 <0>         0.1478
     55 H20         2.2134  -10.6396    3.6365 H         1 <0>         0.1398
     56 H21        -0.1445  -12.3051    2.8026 H         1 <0>         0.0821
     57 H22         1.2047  -12.9740    3.7516 H         1 <0>         0.0766
     58 H23         0.4260  -14.2598    2.3016 H         1 <0>         0.1283
     59 H24         0.0242  -16.4764    1.3100 H         1 <0>         0.1352
     60 H25        -2.6881  -17.4026    4.4792 H         1 <0>         0.1419
     61 H26        -2.2799  -15.1891    5.4754 H         1 <0>         0.1388
     62 H27        -0.9765  -18.9895    2.5994 H         1 <0>         0.3941
     63 H28         1.8271  -11.7985    5.8032 H         1 <0>         0.3899
     64 H29         0.4210   -8.5359    4.6270 H         1 <0>         0.4319
@<TRIPOS>BOND
     1    1   10 ar
     2    1    2 ar
     3    1   37 1
     4    2    3 ar
     5    2   38 1
     6    3    4 ar
     7    3   39 1
     8    4    9 ar
     9    4    5 ar
    10    5    6 ar
    11    5   40 1
    12    6    7 ar
    13    6   11 1
    14    7    8 ar
    15    7   41 1
    16    8    9 ar
    17    8   42 1
    18    9   10 ar
    19   10   43 1
    20   11   12 2
    21   11   13 2
    22   11   14 1
    23   14   15 1
    24   14   44 1
    25   15   20 ar
    26   15   16 ar
    27   16   17 ar
    28   16   45 1
    29   17   18 ar
    30   17   46 1
    31   18   19 ar
    32   18   21 1
    33   19   20 ar
    34   19   47 1
    35   20   48 1
    36   21   22 1
    37   21   49 1
    38   21   50 1
    39   22   23 1
    40   22   51 1
    41   22   52 1
    42   23   24 1
    43   23   53 1
    44   23   64 1
    45   24   25 1
    46   24   54 1
    47   24   55 1
    48   25   26 1
    49   25   27 1
    50   25   36 1
    51   27   28 1
    52   27   56 1
    53   27   57 1
    54   28   29 1
    55   29   34 ar
    56   29   30 ar
    57   30   31 ar
    58   30   58 1
    59   31   32 ar
    60   31   59 1
    61   32   33 ar
    62   32   35 1
    63   33   34 ar
    64   33   60 1
    65   34   61 1
    66   35   62 1
    67   36   63 1
@<TRIPOS>MOLECULE
CHEMBL13278
   63    66     0     0     0
SMALL
USER_CHARGES

@<TRIPOS>ATOM
      1 C1         -0.0164    1.3567    0.0095 C.ar      1 <0>        -0.1041
      2 C2          1.1686    2.0905    0.0021 C.ar      1 <0>        -0.1291
      3 C3          2.3785    1.4675   -0.0131 C.ar      1 <0>        -0.0897
      4 C4          2.4375    0.0634   -0.0211 C.ar      1 <0>        -0.0777
      5 C5          3.6681   -0.6153   -0.0364 C.ar      1 <0>         0.0060
      6 C6          3.6865   -1.9761   -0.0434 C.ar      1 <0>        -0.6152
      7 C7          2.5015   -2.7098   -0.0357 C.ar      1 <0>        -0.0354
      8 C8          1.2917   -2.0868   -0.0209 C.ar      1 <0>        -0.1300
      9 C9          1.2327   -0.6827   -0.0133 C.ar      1 <0>        -0.0196
     10 C10         0.0021   -0.0041    0.0020 C.ar      1 <0>        -0.1171
     11 S1          5.2315   -2.8230   -0.0631 S.o2      1 <0>         2.6084
     12 O1          4.9835   -4.1075   -0.6179 O.2       1 <0>        -1.0231
     13 O2          6.1807   -1.9234   -0.6189 O.2       1 <0>        -1.0274
     14 N1          5.6766   -3.0663    1.5133 N.2       1 <0>        -1.0817
     15 C11         6.8740   -3.7225    1.8076 C.ar      1 <0>         0.2966
     16 C12         7.6954   -4.1666    0.7792 C.ar      1 <0>        -0.2650
     17 C13         8.8788   -4.8146    1.0736 C.ar      1 <0>        -0.0472
     18 C14         9.2463   -5.0220    2.3906 C.ar      1 <0>        -0.2369
     19 C15         8.4309   -4.5812    3.4168 C.ar      1 <0>        -0.0635
     20 C16         7.2489   -3.9273    3.1294 C.ar      1 <0>        -0.1811
     21 C17        10.5379   -5.7304    2.7081 C.3       1 <0>        -0.0712
     22 C18        11.6676   -4.7048    2.8215 C.3       1 <0>        -0.0110
     23 N2         12.9267   -5.3953    3.1310 N.4       1 <0>        -0.5038
     24 C19        14.0113   -4.4106    3.2400 C.3       1 <0>        -0.0418
     25 C20        15.3226   -5.1298    3.5623 C.3       1 <0>         0.0863
     26 H1         15.5536   -5.8382    2.7667 H         1 <0>         0.1348
     27 C21        16.4523   -4.1042    3.6758 C.3       1 <0>         0.0285
     28 O3         17.6957   -4.7836    3.8611 O.3       1 <0>        -0.3012
     29 C22        18.8090   -4.0120    3.9809 C.ar      1 <0>         0.1123
     30 C23        18.7040   -2.6300    3.9268 C.ar      1 <0>        -0.1913
     31 C24        19.8349   -1.8462    4.0485 C.ar      1 <0>        -0.1052
     32 C25        21.0753   -2.4411    4.2253 C.ar      1 <0>         0.0764
     33 C26        21.1801   -3.8230    4.2803 C.ar      1 <0>        -0.1034
     34 C27        20.0487   -4.6067    4.1628 C.ar      1 <0>        -0.1279
     35 O4         22.1886   -1.6695    4.3442 O.3       1 <0>        -0.4963
     36 O5         15.1896   -5.8308    4.8004 O.3       1 <0>        -0.5445
     37 H2         -0.9633    1.8757    0.0259 H         1 <0>         0.1241
     38 H3          1.1260    3.1696    0.0083 H         1 <0>         0.1245
     39 H4          3.2884    2.0491   -0.0194 H         1 <0>         0.1301
     40 H5          4.5943   -0.0599   -0.0428 H         1 <0>         0.1418
     41 H6          2.5441   -3.7890   -0.0419 H         1 <0>         0.1368
     42 H7          0.3816   -2.6684   -0.0154 H         1 <0>         0.1323
     43 H8         -0.9241   -0.5595    0.0082 H         1 <0>         0.1289
     44 H9          7.4086   -4.0056   -0.2496 H         1 <0>         0.1015
     45 H10         9.5179   -5.1601    0.2745 H         1 <0>         0.1019
     46 H11         8.7208   -4.7447    4.4442 H         1 <0>         0.1045
     47 H12         6.6147   -3.5793    3.9314 H         1 <0>         0.1168
     48 H13        10.4364   -6.2651    3.6525 H         1 <0>         0.0808
     49 H14        10.7689   -6.4388    1.9125 H         1 <0>         0.0799
     50 H15        11.7691   -4.1701    1.8771 H         1 <0>         0.1312
     51 H16        11.4366   -3.9964    3.6171 H         1 <0>         0.1311
     52 H17        12.8327   -5.8903    4.0052 H         1 <0>         0.4301
     53 H18        14.1128   -3.8759    2.2956 H         1 <0>         0.1455
     54 H19        13.7803   -3.7022    4.0356 H         1 <0>         0.1382
     55 H20        16.4958   -3.5091    2.7636 H         1 <0>         0.0827
     56 H21        16.2651   -3.4503    4.5276 H         1 <0>         0.0770
     57 H22        17.7382   -2.1668    3.7892 H         1 <0>         0.1302
     58 H23        19.7532   -0.7702    4.0057 H         1 <0>         0.1347
     59 H24        22.1460   -4.2863    4.4175 H         1 <0>         0.1401
     60 H25        20.1298   -5.6827    4.2094 H         1 <0>         0.1382
     61 H26        22.3987   -1.4197    5.2545 H         1 <0>         0.3922
     62 H27        14.9835   -5.2616    5.5545 H         1 <0>         0.3894
     63 H28        13.1405   -6.0510    2.3946 H         1 <0>         0.4279
@<TRIPOS>BOND
     1    1   10 ar
     2    1    2 ar
     3    1   37 1
     4    2    3 ar
     5    2   38 1
     6    3    4 ar
     7    3   39 1
     8    4    9 ar
     9    4    5 ar
    10    5    6 ar
    11    5   40 1
    12    6    7 ar
    13    6   11 1
    14    7    8 ar
    15    7   41 1
    16    8    9 ar
    17    8   42 1
    18    9   10 ar
    19   10   43 1
    20   11   12 2
    21   11   13 2
    22   11   14 1
    23   14   15 1
    24   15   20 ar
    25   15   16 ar
    26   16   17 ar
    27   16   44 1
    28   17   18 ar
    29   17   45 1
    30   18   19 ar
    31   18   21 1
    32   19   20 ar
    33   19   46 1
    34   20   47 1
    35   21   22 1
    36   21   48 1
    37   21   49 1
    38   22   23 1
    39   22   50 1
    40   22   51 1
    41   23   24 1
    42   23   52 1
    43   23   63 1
    44   24   25 1
    45   24   53 1
    46   24   54 1
    47   25   26 1
    48   25   27 1
    49   25   36 1
    50   27   28 1
    51   27   55 1
    52   27   56 1
    53   28   29 1
    54   29   34 ar
    55   29   30 ar
    56   30   31 ar
    57   30   57 1
    58   31   32 ar
    59   31   58 1
    60   32   33 ar
    61   32   35 1
    62   33   34 ar
    63   33   59 1
    64   34   60 1
    65   35   61 1
    66   36   62 1
@<TRIPOS>MOLECULE
CHEMBL182018
   71    74     0     0     0
SMALL
USER_CHARGES

@<TRIPOS>ATOM
      1 C1         -0.0187    1.5258    0.0104 C.3       1 <0>        -0.1843
      2 C2          0.0021   -0.0041    0.0020 C.3       1 <0>         0.0272
      3 H1          0.5293   -0.3651    0.8851 H         1 <0>         0.1397
      4 C3          0.7182   -0.4975   -1.2568 C.3       1 <0>        -0.0579
      5 C4          0.8473   -1.9981   -1.2057 C.2       1 <0>        -0.2302
      6 C5          1.9041   -2.6937   -0.7564 C.2       1 <0>         0.1120
      7 N1          1.6592   -4.0349   -0.8646 N.pl3     1 <0>        -0.5697
      8 H2          2.2753   -4.7370   -0.6031 H         1 <0>         0.4293
      9 C6          0.4058   -4.2399   -1.4002 C.ar      1 <0>         0.1200
     10 C7         -0.1590   -2.9739   -1.6310 C.ar      1 <0>        -0.1030
     11 C8         -1.4436   -2.8707   -2.1710 C.ar      1 <0>        -0.0877
     12 C9         -2.1488   -4.0022   -2.4700 C.ar      1 <0>        -0.1081
     13 C10        -1.6006   -5.2565   -2.2421 C.ar      1 <0>        -0.1034
     14 C11        -0.3282   -5.3834   -1.7167 C.ar      1 <0>         0.0744
     15 O1          0.1992   -6.6167   -1.4948 O.3       1 <0>        -0.6606
     16 S1         -0.1065   -7.1817   -0.1151 S.o2      1 <0>         2.5866
     17 O2          0.7331   -8.3219    0.0040 O.2       1 <0>        -0.9177
     18 O3          0.0398   -6.0788    0.7690 O.2       1 <0>        -0.9573
     19 C12        -1.8455   -7.6918   -0.1951 C.3       1 <0>        -0.6935
     20 N2         -1.3761   -0.5125    0.0124 N.4       1 <0>        -0.5061
     21 C13        -2.0260   -0.1396    1.2760 C.3       1 <0>        -0.0466
     22 C14        -3.4614   -0.6692    1.2868 C.3       1 <0>         0.1353
     23 H3         -3.4489   -1.7549    1.1913 H         1 <0>         0.1285
     24 C15        -4.1282   -0.2867    2.5830 C.ar      1 <0>        -0.0894
     25 C16        -4.7304    0.9519    2.7108 C.ar      1 <0>        -0.1693
     26 C17        -5.3429    1.3070    3.8984 C.ar      1 <0>        -0.0607
     27 C18        -5.3556    0.4252    4.9614 C.ar      1 <0>        -0.1825
     28 C19        -4.7522   -0.8195    4.8364 C.ar      1 <0>         0.2267
     29 C20        -4.1422   -1.1752    3.6398 C.ar      1 <0>        -0.1836
     30 N3         -4.7632   -1.7137    5.9093 N.pl3     1 <0>        -0.7396
     31 C21        -5.4117   -1.3391    7.1684 C.3       1 <0>         0.1550
     32 C22        -5.2839   -2.4707    8.1554 C.2       1 <0>        -0.1814
     33 C23        -4.7458   -2.2531    9.3472 C.2       1 <0>        -0.0787
     34 C24        -4.6204   -3.3630   10.3153 C.ar      1 <0>        -0.0716
     35 C25        -5.0623   -4.6423    9.9757 C.ar      1 <0>        -0.1108
     36 C26        -4.9425   -5.6740   10.8839 C.ar      1 <0>        -0.1194
     37 C27        -4.3861   -5.4422   12.1291 C.ar      1 <0>        -0.1119
     38 C28        -3.9465   -4.1762   12.4722 C.ar      1 <0>        -0.1186
     39 C29        -4.0545   -3.1373   11.5706 C.ar      1 <0>        -0.1035
     40 O4         -4.1863   -0.1032    0.1931 O.3       1 <0>        -0.5473
     41 H4          1.0039    1.9031    0.0027 H         1 <0>         0.1079
     42 H5         -0.5459    1.8868   -0.8726 H         1 <0>         0.0837
     43 H6         -0.5289    1.8773    0.9072 H         1 <0>         0.0819
     44 H7          0.1430   -0.2121   -2.1375 H         1 <0>         0.0974
     45 H8          1.7103   -0.0491   -1.3098 H         1 <0>         0.1214
     46 H9          2.8129   -2.2587   -0.3676 H         1 <0>         0.1858
     47 H10        -1.8783   -1.8987   -2.3513 H         1 <0>         0.1302
     48 H11        -3.1416   -3.9196   -2.8869 H         1 <0>         0.1495
     49 H12        -2.1705   -6.1415   -2.4837 H         1 <0>         0.1527
     50 H13        -1.9681   -8.4435   -0.9748 H         1 <0>         0.1397
     51 H14        -2.1454   -8.1119    0.7649 H         1 <0>         0.1422
     52 H15        -2.4678   -6.8266   -0.4234 H         1 <0>         0.1312
     53 H16        -1.8879   -0.1129   -0.7598 H         1 <0>         0.4255
     54 H17        -1.4732   -0.5714    2.1102 H         1 <0>         0.1431
     55 H18        -2.0386    0.9461    1.3715 H         1 <0>         0.1403
     56 H19        -4.7219    1.6433    1.8812 H         1 <0>         0.1181
     57 H20        -5.8115    2.2752    3.9951 H         1 <0>         0.1288
     58 H21        -5.8339    0.7034    5.8889 H         1 <0>         0.1273
     59 H22        -3.6756   -2.1439    3.5379 H         1 <0>         0.1231
     60 H23        -4.3415   -2.5828    5.8208 H         1 <0>         0.4030
     61 H24        -4.9319   -0.4480    7.5732 H         1 <0>         0.0681
     62 H25        -6.4665   -1.1330    6.9866 H         1 <0>         0.0739
     63 H26        -5.6307   -3.4590    7.8918 H         1 <0>         0.1211
     64 H27        -4.3990   -1.2649    9.6109 H         1 <0>         0.1223
     65 H28        -5.4975   -4.8243    9.0041 H         1 <0>         0.1230
     66 H29        -5.2841   -6.6646   10.6222 H         1 <0>         0.1253
     67 H30        -4.2948   -6.2531   12.8366 H         1 <0>         0.1255
     68 H31        -3.5137   -4.0016   13.4462 H         1 <0>         0.1268
     69 H32        -3.7062   -2.1505   11.8377 H         1 <0>         0.1254
     70 H33        -4.2382    0.8622    0.2132 H         1 <0>         0.3879
     71 H34        -1.3644   -1.5176   -0.0760 H         1 <0>         0.4274
@<TRIPOS>BOND
     1    1    2 1
     2    1   41 1
     3    1   42 1
     4    1   43 1
     5    2    3 1
     6    2    4 1
     7    2   20 1
     8    4    5 1
     9    4   44 1
    10    4   45 1
    11    5   10 1
    12    5    6 2
    13    6    7 1
    14    6   46 1
    15    7    8 1
    16    7    9 1
    17    9   14 ar
    18    9   10 ar
    19   10   11 ar
    20   11   12 ar
    21   11   47 1
    22   12   13 ar
    23   12   48 1
    24   13   14 ar
    25   13   49 1
    26   14   15 1
    27   15   16 1
    28   16   17 2
    29   16   18 2
    30   16   19 1
    31   19   50 1
    32   19   51 1
    33   19   52 1
    34   20   21 1
    35   20   53 1
    36   20   71 1
    37   21   22 1
    38   21   54 1
    39   21   55 1
    40   22   23 1
    41   22   24 1
    42   22   40 1
    43   24   29 ar
    44   24   25 ar
    45   25   26 ar
    46   25   56 1
    47   26   27 ar
    48   26   57 1
    49   27   28 ar
    50   27   58 1
    51   28   29 ar
    52   28   30 1
    53   29   59 1
    54   30   31 1
    55   30   60 1
    56   31   32 1
    57   31   61 1
    58   31   62 1
    59   32   33 2
    60   32   63 1
    61   33   34 1
    62   33   64 1
    63   34   39 ar
    64   34   35 ar
    65   35   36 ar
    66   35   65 1
    67   36   37 ar
    68   36   66 1
    69   37   38 ar
    70   37   67 1
    71   38   39 ar
    72   38   68 1
    73   39   69 1
    74   40   70 1
@<TRIPOS>MOLECULE
CHEMBL39915
   50    52     0     0     0
SMALL
USER_CHARGES

@<TRIPOS>ATOM
      1 C1         -0.0187    1.5258    0.0104 C.3       1 <0>        -0.1797
      2 C2          0.0021   -0.0041    0.0020 C.3       1 <0>         0.0603
      3 C3          0.7421   -0.5109    1.2415 C.3       1 <0>        -0.1816
      4 C4         -1.4333   -0.5336    0.0129 C.3       1 <0>        -0.0912
      5 C5         -2.1387   -0.0476    1.2528 C.ar      1 <0>        -0.0963
      6 C6         -2.0930   -0.7979    2.4129 C.ar      1 <0>        -0.1102
      7 C7         -2.7400   -0.3521    3.5502 C.ar      1 <0>        -0.1152
      8 C8         -3.4324    0.8442    3.5275 C.ar      1 <0>        -0.1079
      9 C9         -3.4773    1.5948    2.3676 C.ar      1 <0>        -0.1156
     10 C10        -2.8267    1.1511    1.2315 C.ar      1 <0>        -0.1105
     11 N1          0.6897   -0.4778   -1.2066 N.4       1 <0>        -0.5006
     12 C11         2.0678    0.0307   -1.2170 C.3       1 <0>        -0.0543
     13 C12         2.7840   -0.4628   -2.4758 C.3       1 <0>         0.1632
     14 C13         4.2310   -0.0447   -2.4270 C.ar      1 <0>        -0.2609
     15 C14         4.6317    1.1084   -3.0401 C.ar      1 <0>        -0.0413
     16 C15         5.9612    1.5044   -3.0025 C.ar      1 <0>        -0.2642
     17 C16         6.9056    0.7393   -2.3437 C.ar      1 <0>         0.2694
     18 C17         6.5172   -0.4424   -1.7108 C.ar      1 <0>         0.0645
     19 C18         5.1667   -0.8337   -1.7487 C.ar      1 <0>        -0.0674
     20 C19         4.7678   -2.0721   -1.0771 C.2       1 <0>        -0.0483
     21 C20         5.7176   -2.7965   -0.4357 C.2       1 <0>        -0.2055
     22 C21         7.0587   -2.3567   -0.4219 C.2       1 <0>         0.5122
     23 N2          7.4368   -1.2271   -1.0459 N.am      1 <0>        -0.5934
     24 O1          7.8966   -3.0227    0.1613 O.2       1 <0>        -0.5716
     25 O2          8.2058    1.1357   -2.3130 O.3       1 <0>        -0.6870
     26 O3          2.1628    0.1050   -3.6307 O.3       1 <0>        -0.5566
     27 H1          1.0039    1.9031    0.0027 H         1 <0>         0.0850
     28 H2         -0.5459    1.8868   -0.8726 H         1 <0>         0.0807
     29 H3         -0.5289    1.8773    0.9072 H         1 <0>         0.1054
     30 H4          0.2319   -0.1594    2.1383 H         1 <0>         0.1057
     31 H5          0.7568   -1.6008    1.2356 H         1 <0>         0.0814
     32 H6          1.7647   -0.1336    1.2338 H         1 <0>         0.0860
     33 H7         -1.9605   -0.1726   -0.8702 H         1 <0>         0.0951
     34 H8         -1.4185   -1.6235    0.0069 H         1 <0>         0.0951
     35 H9         -1.5520   -1.7325    2.4307 H         1 <0>         0.1248
     36 H10        -2.7048   -0.9386    4.4564 H         1 <0>         0.1276
     37 H11        -3.9385    1.1921    4.4159 H         1 <0>         0.1270
     38 H12        -4.0185    2.5293    2.3498 H         1 <0>         0.1274
     39 H13        -2.8587    1.7394    0.3264 H         1 <0>         0.1244
     40 H14         0.7033   -1.4867   -1.2121 H         1 <0>         0.4231
     41 H15         2.0530    1.1205   -1.2110 H         1 <0>         0.1370
     42 H16         2.5950   -0.3304   -0.3340 H         1 <0>         0.1423
     43 H17         2.7213   -1.5498   -2.5270 H         1 <0>         0.1133
     44 H18         3.9068    1.7177   -3.5595 H         1 <0>         0.0997
     45 H19         6.2610    2.4188   -3.4928 H         1 <0>         0.1111
     46 H20         3.7392   -2.4011   -1.0919 H         1 <0>         0.1223
     47 H21         5.4469   -3.7134    0.0667 H         1 <0>         0.1440
     48 H22         2.1814    1.0716   -3.6522 H         1 <0>         0.3836
     49 H23         8.3670   -0.9536   -1.0174 H         1 <0>         0.4201
     50 H24         0.2017   -0.1436   -2.0240 H         1 <0>         0.4273
@<TRIPOS>BOND
     1    1    2 1
     2    1   27 1
     3    1   28 1
     4    1   29 1
     5    2    3 1
     6    2    4 1
     7    2   11 1
     8    3   30 1
     9    3   31 1
    10    3   32 1
    11    4    5 1
    12    4   33 1
    13    4   34 1
    14    5   10 ar
    15    5    6 ar
    16    6    7 ar
    17    6   35 1
    18    7    8 ar
    19    7   36 1
    20    8    9 ar
    21    8   37 1
    22    9   10 ar
    23    9   38 1
    24   10   39 1
    25   11   12 1
    26   11   40 1
    27   11   50 1
    28   12   13 1
    29   12   41 1
    30   12   42 1
    31   13   14 1
    32   13   26 1
    33   13   43 1
    34   14   19 ar
    35   14   15 ar
    36   15   16 ar
    37   15   44 1
    38   16   17 ar
    39   16   45 1
    40   17   18 ar
    41   17   25 1
    42   18   23 1
    43   18   19 ar
    44   19   20 1
    45   20   21 2
    46   20   46 1
    47   21   22 1
    48   21   47 1
    49   22   23 am
    50   22   24 2
    51   23   49 1
    52   26   48 1
@<TRIPOS>MOLECULE
CHEMBL39915
   50    52     0     0     0
SMALL
USER_CHARGES

@<TRIPOS>ATOM
      1 C1         -0.0187    1.5258    0.0104 C.3       1 <0>        -0.1814
      2 C2          0.0021   -0.0041    0.0020 C.3       1 <0>         0.0603
      3 C3          0.7421   -0.5109    1.2415 C.3       1 <0>        -0.1801
      4 C4         -1.4333   -0.5336    0.0129 C.3       1 <0>        -0.0911
      5 C5         -2.1387   -0.0476    1.2528 C.ar      1 <0>        -0.0963
      6 C6         -2.0930   -0.7979    2.4129 C.ar      1 <0>        -0.1105
      7 C7         -2.7400   -0.3521    3.5502 C.ar      1 <0>        -0.1155
      8 C8         -3.4324    0.8442    3.5275 C.ar      1 <0>        -0.1079
      9 C9         -3.4773    1.5948    2.3676 C.ar      1 <0>        -0.1152
     10 C10        -2.8267    1.1511    1.2315 C.ar      1 <0>        -0.1102
     11 N1          0.6897   -0.4778   -1.2066 N.4       1 <0>        -0.5000
     12 C11         2.0678    0.0307   -1.2170 C.3       1 <0>        -0.0543
     13 C12         2.7840   -0.4628   -2.4758 C.3       1 <0>         0.1630
     14 C13         4.1978    0.0589   -2.4865 C.ar      1 <0>        -0.2611
     15 C14         5.2165   -0.7140   -2.0060 C.ar      1 <0>        -0.0415
     16 C15         6.5227   -0.2452   -2.0102 C.ar      1 <0>        -0.2643
     17 C16         6.8177    1.0130   -2.5010 C.ar      1 <0>         0.2694
     18 C17         5.7917    1.8188   -2.9966 C.ar      1 <0>         0.0642
     19 C18         4.4713    1.3339   -2.9940 C.ar      1 <0>        -0.0669
     20 C19         3.4022    2.1843   -3.5212 C.2       1 <0>        -0.0482
     21 C20         3.7262    3.4108   -3.9997 C.2       1 <0>        -0.2056
     22 C21         5.0681    3.8480   -3.9855 C.2       1 <0>         0.5123
     23 N2          6.0550    3.0791   -3.4925 N.am      1 <0>        -0.5936
     24 O1          5.3376    4.9540   -4.4213 O.2       1 <0>        -0.5716
     25 O2          8.1007    1.4633   -2.5004 O.3       1 <0>        -0.6871
     26 O3          2.8033   -1.8916   -2.4837 O.3       1 <0>        -0.5571
     27 H1          1.0039    1.9031    0.0027 H         1 <0>         0.0858
     28 H2         -0.5459    1.8868   -0.8726 H         1 <0>         0.0813
     29 H3         -0.5289    1.8773    0.9072 H         1 <0>         0.1057
     30 H4          0.2319   -0.1594    2.1383 H         1 <0>         0.1054
     31 H5          0.7568   -1.6008    1.2356 H         1 <0>         0.0807
     32 H6          1.7647   -0.1336    1.2338 H         1 <0>         0.0853
     33 H7         -1.9605   -0.1726   -0.8702 H         1 <0>         0.0951
     34 H8         -1.4185   -1.6235    0.0069 H         1 <0>         0.0951
     35 H9         -1.5520   -1.7325    2.4307 H         1 <0>         0.1244
     36 H10        -2.7048   -0.9386    4.4564 H         1 <0>         0.1274
     37 H11        -3.9385    1.1921    4.4159 H         1 <0>         0.1270
     38 H12        -4.0185    2.5293    2.3498 H         1 <0>         0.1276
     39 H13        -2.8587    1.7394    0.3264 H         1 <0>         0.1247
     40 H14         0.7033   -1.4867   -1.2121 H         1 <0>         0.4271
     41 H15         2.0530    1.1205   -1.2110 H         1 <0>         0.1417
     42 H16         2.5950   -0.3304   -0.3340 H         1 <0>         0.1375
     43 H17         2.2568   -0.1017   -3.3589 H         1 <0>         0.1141
     44 H18         5.0033   -1.6993   -1.6186 H         1 <0>         0.0997
     45 H19         7.3161   -0.8692   -1.6262 H         1 <0>         0.1111
     46 H20         2.3780    1.8418   -3.5291 H         1 <0>         0.1231
     47 H21         2.9545    4.0556   -4.3936 H         1 <0>         0.1440
     48 H22         3.2576   -2.2830   -1.7250 H         1 <0>         0.3833
     49 H23         6.9668    3.4102   -3.4972 H         1 <0>         0.4200
     50 H24         0.2017   -0.1436   -2.0240 H         1 <0>         0.4232
@<TRIPOS>BOND
     1    1    2 1
     2    1   27 1
     3    1   28 1
     4    1   29 1
     5    2    3 1
     6    2    4 1
     7    2   11 1
     8    3   30 1
     9    3   31 1
    10    3   32 1
    11    4    5 1
    12    4   33 1
    13    4   34 1
    14    5   10 ar
    15    5    6 ar
    16    6    7 ar
    17    6   35 1
    18    7    8 ar
    19    7   36 1
    20    8    9 ar
    21    8   37 1
    22    9   10 ar
    23    9   38 1
    24   10   39 1
    25   11   12 1
    26   11   40 1
    27   11   50 1
    28   12   13 1
    29   12   41 1
    30   12   42 1
    31   13   14 1
    32   13   26 1
    33   13   43 1
    34   14   19 ar
    35   14   15 ar
    36   15   16 ar
    37   15   44 1
    38   16   17 ar
    39   16   45 1
    40   17   18 ar
    41   17   25 1
    42   18   23 1
    43   18   19 ar
    44   19   20 1
    45   20   21 2
    46   20   46 1
    47   21   22 1
    48   21   47 1
    49   22   23 am
    50   22   24 2
    51   23   49 1
    52   26   48 1
@<TRIPOS>MOLECULE
CHEMBL98975
   50    52     0     0     0
SMALL
USER_CHARGES

@<TRIPOS>ATOM
      1 C1         -0.0167    1.3784    0.0096 C.ar      1 <0>        -0.1471
      2 C2          1.1698    2.0883    0.0021 C.ar      1 <0>        -0.0763
      3 C3          2.3773    1.4175   -0.0134 C.ar      1 <0>        -0.1444
      4 C4          2.3989    0.0304   -0.0210 C.ar      1 <0>         0.1162
      5 C5          1.2070   -0.6796   -0.0130 C.ar      1 <0>        -0.2095
      6 C6          0.0021   -0.0041    0.0020 C.ar      1 <0>        -0.0801
      7 O1          3.5855   -0.6319   -0.0368 O.3       1 <0>        -0.3027
      8 C7          3.5315   -2.0598   -0.0438 C.3       1 <0>         0.0300
      9 C8          4.9536   -2.6239   -0.0615 C.3       1 <0>         0.0855
     10 C9          4.8964   -4.1471   -0.1947 C.3       1 <0>        -0.0425
     11 N1          6.2619   -4.6887   -0.2117 N.4       1 <0>        -0.5047
     12 C10         6.2070   -6.1510   -0.3396 C.3       1 <0>         0.0009
     13 C11         7.6291   -6.7151   -0.3573 C.3       1 <0>         0.0229
     14 O2          8.2548   -6.4692    0.9037 O.3       1 <0>        -0.3260
     15 C12         9.5317   -6.9103    1.0556 C.ar      1 <0>         0.1044
     16 C13        10.1696   -7.5611    0.0095 C.ar      1 <0>        -0.1720
     17 C14        11.4665   -8.0093    0.1634 C.ar      1 <0>        -0.0950
     18 C15        12.1322   -7.8083    1.3648 C.ar      1 <0>         0.1227
     19 C16        11.4937   -7.1568    2.4110 C.ar      1 <0>        -0.0929
     20 C17        10.1985   -6.7046    2.2547 C.ar      1 <0>        -0.1098
     21 N2         13.4504   -8.2642    1.5218 N.pl3     1 <0>        -0.4175
     22 C18        14.2262   -8.1426    2.6452 C.2       1 <0>        -0.0569
     23 C19        15.4131   -8.7131    2.3633 C.2       1 <0>        -0.0123
     24 N3         15.3684   -9.1720    1.1039 N.2       1 <0>        -0.4774
     25 C20        14.1959   -8.9143    0.5913 C.2       1 <0>         0.1885
     26 O3          5.6188   -2.2768    1.1546 O.3       1 <0>        -0.5426
     27 H1         -0.9596    1.9047    0.0260 H         1 <0>         0.1298
     28 H2          1.1525    3.1682    0.0080 H         1 <0>         0.1354
     29 H3          3.3038    1.9724   -0.0200 H         1 <0>         0.1332
     30 H4          1.2211   -1.7595   -0.0193 H         1 <0>         0.1233
     31 H5         -0.9260   -0.5563    0.0082 H         1 <0>         0.1286
     32 H6          3.0134   -2.4083    0.8497 H         1 <0>         0.0766
     33 H7          2.9951   -2.3988   -0.9302 H         1 <0>         0.0814
     34 H8          5.4999   -2.2055   -0.9067 H         1 <0>         0.1358
     35 H9          4.3501   -4.5655    0.6505 H         1 <0>         0.1414
     36 H10         4.3890   -4.4118   -1.1224 H         1 <0>         0.1485
     37 H11         6.7676   -4.3013   -0.9941 H         1 <0>         0.4308
     38 H12         5.6606   -6.5695    0.5056 H         1 <0>         0.1450
     39 H13         5.6996   -6.4158   -1.2672 H         1 <0>         0.1542
     40 H14         7.5918   -7.7889   -0.5411 H         1 <0>         0.1135
     41 H15         8.2023   -6.2309   -1.1479 H         1 <0>         0.0901
     42 H16         9.6516   -7.7174   -0.9251 H         1 <0>         0.1389
     43 H17        11.9628   -8.5165   -0.6507 H         1 <0>         0.1415
     44 H18        12.0112   -7.0005    3.3460 H         1 <0>         0.1452
     45 H19         9.7031   -6.1940    3.0673 H         1 <0>         0.1448
     46 H20        13.9407   -7.6778    3.5774 H         1 <0>         0.1809
     47 H21        16.2555   -8.7877    3.0351 H         1 <0>         0.1794
     48 H22        13.8736   -9.1725   -0.4067 H         1 <0>         0.2096
     49 H23         5.1868   -2.6168    1.9502 H         1 <0>         0.3906
     50 H24         6.7316   -4.4435    0.6470 H         1 <0>         0.4403
@<TRIPOS>BOND
     1    1    6 ar
     2    1    2 ar
     3    1   27 1
     4    2    3 ar
     5    2   28 1
     6    3    4 ar
     7    3   29 1
     8    4    5 ar
     9    4    7 1
    10    5    6 ar
    11    5   30 1
    12    6   31 1
    13    7    8 1
    14    8    9 1
    15    8   32 1
    16    8   33 1
    17    9   10 1
    18    9   26 1
    19    9   34 1
    20   10   11 1
    21   10   35 1
    22   10   36 1
    23   11   12 1
    24   11   37 1
    25   11   50 1
    26   12   13 1
    27   12   38 1
    28   12   39 1
    29   13   14 1
    30   13   40 1
    31   13   41 1
    32   14   15 1
    33   15   20 ar
    34   15   16 ar
    35   16   17 ar
    36   16   42 1
    37   17   18 ar
    38   17   43 1
    39   18   19 ar
    40   18   21 1
    41   19   20 ar
    42   19   44 1
    43   20   45 1
    44   21   25 1
    45   21   22 1
    46   22   23 2
    47   22   46 1
    48   23   24 1
    49   23   47 1
    50   24   25 2
    51   25   48 1
    52   26   49 1
@<TRIPOS>MOLECULE
CHEMBL98975
   49    51     0     0     0
SMALL
USER_CHARGES

@<TRIPOS>ATOM
      1 C1         -0.0167    1.3784    0.0096 C.ar      1 <0>        -0.1585
      2 C2          1.1698    2.0883    0.0021 C.ar      1 <0>        -0.0795
      3 C3          2.3773    1.4175   -0.0134 C.ar      1 <0>        -0.1513
      4 C4          2.3989    0.0304   -0.0210 C.ar      1 <0>         0.1274
      5 C5          1.2070   -0.6796   -0.0130 C.ar      1 <0>        -0.2118
      6 C6          0.0021   -0.0041    0.0020 C.ar      1 <0>        -0.0806
      7 O1          3.5855   -0.6319   -0.0368 O.3       1 <0>        -0.3032
      8 C7          3.5315   -2.0598   -0.0438 C.3       1 <0>         0.0278
      9 C8          4.9536   -2.6239   -0.0615 C.3       1 <0>         0.1146
     10 C9          4.8964   -4.1471   -0.1947 C.3       1 <0>         0.0299
     11 N1          6.2619   -4.6887   -0.2117 N.3       1 <0>        -0.6721
     12 C10         6.2462   -6.1521   -0.3388 C.3       1 <0>         0.0592
     13 C11         7.6828   -6.6782   -0.3529 C.3       1 <0>         0.0604
     14 O2          8.2988   -6.4150    0.9094 O.3       1 <0>        -0.2922
     15 C12         9.5866   -6.8219    1.0645 C.ar      1 <0>         0.1310
     16 C13        10.2441   -7.4561    0.0203 C.ar      1 <0>        -0.1854
     17 C14        11.5521   -7.8696    0.1774 C.ar      1 <0>        -0.0900
     18 C15        12.2094   -7.6504    1.3802 C.ar      1 <0>         0.0907
     19 C16        11.5514   -7.0154    2.4246 C.ar      1 <0>        -0.0891
     20 C17        10.2449   -6.5979    2.2650 C.ar      1 <0>        -0.1230
     21 N2         13.5389   -8.0710    1.5405 N.pl3     1 <0>        -0.4063
     22 C18        14.3086   -7.9281    2.6656 C.2       1 <0>        -0.0553
     23 C19        15.5108   -8.4671    2.3868 C.2       1 <0>        -0.0222
     24 N3         15.4813   -8.9276    1.1276 N.2       1 <0>        -0.4853
     25 C20        14.3035   -8.7015    0.6121 C.2       1 <0>         0.1844
     26 O3          5.6188   -2.2768    1.1546 O.3       1 <0>        -0.5358
     27 H1         -0.9596    1.9047    0.0260 H         1 <0>         0.1246
     28 H2          1.1525    3.1682    0.0080 H         1 <0>         0.1304
     29 H3          3.3038    1.9724   -0.0200 H         1 <0>         0.1314
     30 H4          1.2211   -1.7595   -0.0193 H         1 <0>         0.1252
     31 H5         -0.9260   -0.5563    0.0082 H         1 <0>         0.1248
     32 H6          3.0134   -2.4083    0.8497 H         1 <0>         0.0673
     33 H7          2.9951   -2.3988   -0.9302 H         1 <0>         0.0701
     34 H8          5.4999   -2.2055   -0.9067 H         1 <0>         0.1072
     35 H9          4.3501   -4.5655    0.6505 H         1 <0>         0.0814
     36 H10         4.3890   -4.4118   -1.1224 H         1 <0>         0.0433
     37 H11         6.8088   -4.2676   -0.9476 H         1 <0>         0.3448
     38 H12         5.7092   -6.5844    0.5054 H         1 <0>         0.0871
     39 H13         5.7481   -6.4308   -1.2675 H         1 <0>         0.0548
     40 H14         7.6745   -7.7526   -0.5361 H         1 <0>         0.0709
     41 H15         8.2448   -6.1793   -1.1425 H         1 <0>         0.0647
     42 H16         9.7326   -7.6267   -0.9155 H         1 <0>         0.1374
     43 H17        12.0635   -8.3639   -0.6353 H         1 <0>         0.1345
     44 H18        12.0624   -6.8449    3.3606 H         1 <0>         0.1383
     45 H19         9.7343   -6.1002    3.0761 H         1 <0>         0.1432
     46 H20        14.0086   -7.4706    3.5968 H         1 <0>         0.1780
     47 H21        16.3533   -8.5189    3.0605 H         1 <0>         0.1751
     48 H22        13.9905   -8.9687   -0.3864 H         1 <0>         0.2071
     49 H23         5.1868   -2.6168    1.9502 H         1 <0>         0.3745
@<TRIPOS>BOND
     1    1    6 ar
     2    1    2 ar
     3    1   27 1
     4    2    3 ar
     5    2   28 1
     6    3    4 ar
     7    3   29 1
     8    4    5 ar
     9    4    7 1
    10    5    6 ar
    11    5   30 1
    12    6   31 1
    13    7    8 1
    14    8    9 1
    15    8   32 1
    16    8   33 1
    17    9   10 1
    18    9   26 1
    19    9   34 1
    20   10   11 1
    21   10   35 1
    22   10   36 1
    23   11   12 1
    24   11   37 1
    25   12   13 1
    26   12   38 1
    27   12   39 1
    28   13   14 1
    29   13   40 1
    30   13   41 1
    31   14   15 1
    32   15   20 ar
    33   15   16 ar
    34   16   17 ar
    35   16   42 1
    36   17   18 ar
    37   17   43 1
    38   18   19 ar
    39   18   21 1
    40   19   20 ar
    41   19   44 1
    42   20   45 1
    43   21   25 1
    44   21   22 1
    45   22   23 2
    46   22   46 1
    47   23   24 1
    48   23   47 1
    49   24   25 2
    50   25   48 1
    51   26   49 1
@<TRIPOS>MOLECULE
CHEMBL98975
   50    52     0     0     0
SMALL
USER_CHARGES

@<TRIPOS>ATOM
      1 C1         -0.0167    1.3784    0.0096 C.ar      1 <0>        -0.1471
      2 C2          1.1698    2.0883    0.0021 C.ar      1 <0>        -0.0763
      3 C3          2.3773    1.4175   -0.0134 C.ar      1 <0>        -0.1444
      4 C4          2.3989    0.0304   -0.0210 C.ar      1 <0>         0.1161
      5 C5          1.2070   -0.6796   -0.0130 C.ar      1 <0>        -0.2095
      6 C6          0.0021   -0.0041    0.0020 C.ar      1 <0>        -0.0800
      7 O1          3.5855   -0.6319   -0.0368 O.3       1 <0>        -0.3028
      8 C7          3.5315   -2.0598   -0.0438 C.3       1 <0>         0.0301
      9 C8          4.9536   -2.6239   -0.0615 C.3       1 <0>         0.0855
     10 C9          4.8990   -4.1484    0.0567 C.3       1 <0>        -0.0420
     11 N1          6.2643   -4.6807    0.1602 N.4       1 <0>        -0.5051
     12 C10         6.2119   -6.1443    0.2737 C.3       1 <0>         0.0009
     13 C11         7.6339   -6.6987    0.3815 C.3       1 <0>         0.0231
     14 O2          8.2305   -6.2463    1.5986 O.3       1 <0>        -0.3265
     15 C12         9.5034   -6.6520    1.8501 C.ar      1 <0>         0.1042
     16 C13        10.1650   -7.4639    0.9402 C.ar      1 <0>        -0.1716
     17 C14        11.4579   -7.8761    1.1953 C.ar      1 <0>        -0.0949
     18 C15        12.0959   -7.4778    2.3619 C.ar      1 <0>         0.1228
     19 C16        11.4337   -6.6650    3.2718 C.ar      1 <0>        -0.0930
     20 C17        10.1426   -6.2492    3.0137 C.ar      1 <0>        -0.1102
     21 N2         13.4100   -7.8970    2.6218 N.pl3     1 <0>        -0.4176
     22 C18        14.1598   -7.5893    3.7272 C.2       1 <0>        -0.0570
     23 C19        15.3527   -8.1944    3.5702 C.2       1 <0>        -0.0122
     24 N3         15.3368   -8.8545    2.4028 N.2       1 <0>        -0.4774
     25 C20        14.1764   -8.6888    1.8282 C.2       1 <0>         0.1886
     26 O3          5.5937   -2.2638   -1.2873 O.3       1 <0>        -0.5425
     27 H1         -0.9596    1.9047    0.0260 H         1 <0>         0.1298
     28 H2          1.1525    3.1682    0.0080 H         1 <0>         0.1354
     29 H3          3.3038    1.9724   -0.0200 H         1 <0>         0.1332
     30 H4          1.2211   -1.7595   -0.0193 H         1 <0>         0.1233
     31 H5         -0.9260   -0.5563    0.0082 H         1 <0>         0.1286
     32 H6          3.0134   -2.4083    0.8497 H         1 <0>         0.0814
     33 H7          2.9951   -2.3988   -0.9302 H         1 <0>         0.0767
     34 H8          5.5173   -2.2145    0.7768 H         1 <0>         0.1354
     35 H9          4.3332   -4.4238    0.9467 H         1 <0>         0.1482
     36 H10         4.4130   -4.5641   -0.8259 H         1 <0>         0.1418
     37 H11         6.7881   -4.4257   -0.6637 H         1 <0>         0.4338
     38 H12         5.6461   -6.4198    1.1637 H         1 <0>         0.1456
     39 H13         5.7259   -6.5600   -0.6090 H         1 <0>         0.1536
     40 H14         7.6005   -7.7882    0.3763 H         1 <0>         0.1135
     41 H15         8.2252   -6.3492   -0.4648 H         1 <0>         0.0902
     42 H16         9.6686   -7.7738    0.0325 H         1 <0>         0.1390
     43 H17        11.9726   -8.5088    0.4873 H         1 <0>         0.1416
     44 H18        11.9296   -6.3551    4.1798 H         1 <0>         0.1452
     45 H19         9.6288   -5.6135    3.7196 H         1 <0>         0.1447
     46 H20        13.8531   -6.9784    4.5633 H         1 <0>         0.1808
     47 H21        16.1794   -8.1544    4.2640 H         1 <0>         0.1794
     48 H22        13.8770   -9.1089    0.8794 H         1 <0>         0.2097
     49 H23         5.1454   -2.5954   -2.0773 H         1 <0>         0.3903
     50 H24         6.7142   -4.2959    0.9773 H         1 <0>         0.4374
@<TRIPOS>BOND
     1    1    6 ar
     2    1    2 ar
     3    1   27 1
     4    2    3 ar
     5    2   28 1
     6    3    4 ar
     7    3   29 1
     8    4    5 ar
     9    4    7 1
    10    5    6 ar
    11    5   30 1
    12    6   31 1
    13    7    8 1
    14    8    9 1
    15    8   32 1
    16    8   33 1
    17    9   10 1
    18    9   26 1
    19    9   34 1
    20   10   11 1
    21   10   35 1
    22   10   36 1
    23   11   12 1
    24   11   37 1
    25   11   50 1
    26   12   13 1
    27   12   38 1
    28   12   39 1
    29   13   14 1
    30   13   40 1
    31   13   41 1
    32   14   15 1
    33   15   20 ar
    34   15   16 ar
    35   16   17 ar
    36   16   42 1
    37   17   18 ar
    38   17   43 1
    39   18   19 ar
    40   18   21 1
    41   19   20 ar
    42   19   44 1
    43   20   45 1
    44   21   25 1
    45   21   22 1
    46   22   23 2
    47   22   46 1
    48   23   24 1
    49   23   47 1
    50   24   25 2
    51   25   48 1
    52   26   49 1
@<TRIPOS>MOLECULE
CHEMBL98975
   49    51     0     0     0
SMALL
USER_CHARGES

@<TRIPOS>ATOM
      1 C1         -0.0167    1.3784    0.0096 C.ar      1 <0>        -0.1585
      2 C2          1.1698    2.0883    0.0021 C.ar      1 <0>        -0.0795
      3 C3          2.3773    1.4175   -0.0134 C.ar      1 <0>        -0.1512
      4 C4          2.3989    0.0304   -0.0210 C.ar      1 <0>         0.1275
      5 C5          1.2070   -0.6796   -0.0130 C.ar      1 <0>        -0.2118
      6 C6          0.0021   -0.0041    0.0020 C.ar      1 <0>        -0.0806
      7 O1          3.5855   -0.6319   -0.0368 O.3       1 <0>        -0.3030
      8 C7          3.5315   -2.0598   -0.0438 C.3       1 <0>         0.0290
      9 C8          4.9536   -2.6239   -0.0615 C.3       1 <0>         0.1112
     10 C9          4.8990   -4.1484    0.0567 C.3       1 <0>         0.0320
     11 N1          6.2643   -4.6807    0.1602 N.3       1 <0>        -0.6779
     12 C10         6.2511   -6.1451    0.2755 C.3       1 <0>         0.0592
     13 C11         7.6875   -6.6613    0.3810 C.3       1 <0>         0.0601
     14 O2          8.2744   -6.1917    1.5963 O.3       1 <0>        -0.2934
     15 C12         9.5582   -6.5631    1.8455 C.ar      1 <0>         0.1306
     16 C13        10.2392   -7.3583    0.9352 C.ar      1 <0>        -0.1849
     17 C14        11.5431   -7.7358    1.1880 C.ar      1 <0>        -0.0899
     18 C15        12.1727   -7.3191    2.3528 C.ar      1 <0>         0.0910
     19 C16        11.4911   -6.5232    3.2632 C.ar      1 <0>        -0.0891
     20 C17        10.1888   -6.1422    3.0073 C.ar      1 <0>        -0.1234
     21 N2         13.4980   -7.7030    2.6104 N.pl3     1 <0>        -0.4064
     22 C18        14.2417   -7.3742    3.7139 C.2       1 <0>        -0.0554
     23 C19        15.4499   -7.9475    3.5550 C.2       1 <0>        -0.0220
     24 N3         15.4491   -8.6092    2.3885 N.2       1 <0>        -0.4853
     25 C20        14.2836   -8.4751    1.8161 C.2       1 <0>         0.1845
     26 O3          5.5937   -2.2638   -1.2873 O.3       1 <0>        -0.5481
     27 H1         -0.9596    1.9047    0.0260 H         1 <0>         0.1246
     28 H2          1.1525    3.1682    0.0080 H         1 <0>         0.1304
     29 H3          3.3038    1.9724   -0.0200 H         1 <0>         0.1315
     30 H4          1.2211   -1.7595   -0.0193 H         1 <0>         0.1251
     31 H5         -0.9260   -0.5563    0.0082 H         1 <0>         0.1248
     32 H6          3.0134   -2.4083    0.8497 H         1 <0>         0.0732
     33 H7          2.9951   -2.3988   -0.9302 H         1 <0>         0.0649
     34 H8          5.5173   -2.2145    0.7768 H         1 <0>         0.1211
     35 H9          4.3332   -4.4238    0.9467 H         1 <0>         0.0871
     36 H10         4.4130   -4.5641   -0.8259 H         1 <0>         0.0376
     37 H11         6.8281   -4.3846   -0.6224 H         1 <0>         0.3503
     38 H12         5.6947   -6.4343    1.1670 H         1 <0>         0.0874
     39 H13         5.7744   -6.5746   -0.6056 H         1 <0>         0.0551
     40 H14         7.6830   -7.7513    0.3771 H         1 <0>         0.0713
     41 H15         8.2676   -6.2973   -0.4670 H         1 <0>         0.0651
     42 H16         9.7493   -7.6824    0.0289 H         1 <0>         0.1376
     43 H17        12.0730   -8.3554    0.4796 H         1 <0>         0.1347
     44 H18        11.9805   -6.1991    4.1697 H         1 <0>         0.1383
     45 H19         9.6598   -5.5195    3.7136 H         1 <0>         0.1431
     46 H20        13.9206   -6.7706    4.5499 H         1 <0>         0.1780
     47 H21        16.2767   -7.8847    4.2470 H         1 <0>         0.1752
     48 H22        13.9935   -8.9042    0.8684 H         1 <0>         0.2072
     49 H23         5.1454   -2.5954   -2.0773 H         1 <0>         0.3718
@<TRIPOS>BOND
     1    1    6 ar
     2    1    2 ar
     3    1   27 1
     4    2    3 ar
     5    2   28 1
     6    3    4 ar
     7    3   29 1
     8    4    5 ar
     9    4    7 1
    10    5    6 ar
    11    5   30 1
    12    6   31 1
    13    7    8 1
    14    8    9 1
    15    8   32 1
    16    8   33 1
    17    9   10 1
    18    9   26 1
    19    9   34 1
    20   10   11 1
    21   10   35 1
    22   10   36 1
    23   11   12 1
    24   11   37 1
    25   12   13 1
    26   12   38 1
    27   12   39 1
    28   13   14 1
    29   13   40 1
    30   13   41 1
    31   14   15 1
    32   15   20 ar
    33   15   16 ar
    34   16   17 ar
    35   16   42 1
    36   17   18 ar
    37   17   43 1
    38   18   19 ar
    39   18   21 1
    40   19   20 ar
    41   19   44 1
    42   20   45 1
    43   21   25 1
    44   21   22 1
    45   22   23 2
    46   22   46 1
    47   23   24 1
    48   23   47 1
    49   24   25 2
    50   25   48 1
    51   26   49 1
@<TRIPOS>MOLECULE
CHEMBL486278
   56    58     0     0     0
SMALL
USER_CHARGES

@<TRIPOS>ATOM
      1 C1         -0.0187    1.5258    0.0104 C.3       1 <0>        -0.1807
      2 C2          0.0021   -0.0041    0.0020 C.3       1 <0>         0.0587
      3 C3          0.7421   -0.5109    1.2415 C.3       1 <0>        -0.1806
      4 C4         -1.4333   -0.5336    0.0129 C.3       1 <0>        -0.0839
      5 C5         -2.1387   -0.0476    1.2528 C.ar      1 <0>        -0.1448
      6 C6         -2.0922   -0.7990    2.4125 C.ar      1 <0>        -0.0681
      7 C7         -2.7383   -0.3559    3.5503 C.ar      1 <0>        -0.1494
      8 C8         -3.4339    0.8443    3.5287 C.ar      1 <0>         0.1474
      9 C9         -3.4787    1.5965    2.3639 C.ar      1 <0>        -0.2069
     10 C10        -2.8265    1.1516    1.2302 C.ar      1 <0>        -0.0665
     11 O1         -4.0708    1.2821    4.6466 O.3       1 <0>        -0.3120
     12 C11        -4.7671    2.5263    4.5512 C.3       1 <0>         0.0234
     13 N1          0.6897   -0.4778   -1.2066 N.4       1 <0>        -0.4974
     14 C12         2.0678    0.0307   -1.2170 C.3       1 <0>        -0.0506
     15 C13         2.7840   -0.4628   -2.4758 C.3       1 <0>         0.0869
     16 H1          2.2568   -0.1017   -3.3589 H         1 <0>         0.1350
     17 C14         4.2193    0.0668   -2.4867 C.3       1 <0>         0.0313
     18 O2          4.8516   -0.2959   -3.7158 O.3       1 <0>        -0.3031
     19 C15         6.1408    0.1009   -3.8874 C.ar      1 <0>         0.1364
     20 C16         6.7857    0.8187   -2.8929 C.ar      1 <0>        -0.2014
     21 C17         8.0977    1.2235   -3.0656 C.ar      1 <0>        -0.0663
     22 C18         8.7750    0.9161   -4.2293 C.ar      1 <0>        -0.1314
     23 C19         8.1391    0.1979   -5.2318 C.ar      1 <0>         0.1329
     24 C20         6.8186   -0.2170   -5.0592 C.ar      1 <0>         0.0648
     25 N2          6.4601   -0.9126   -6.2138 N.am      1 <0>        -0.6347
     26 H2          5.5965   -1.3189   -6.3871 H         1 <0>         0.4384
     27 C21         7.5181   -0.9238   -7.0466 C.2       1 <0>         0.6837
     28 O3          7.5409   -1.4494   -8.1439 O.2       1 <0>        -0.5437
     29 N3          8.5430   -0.2545   -6.4858 N.am      1 <0>        -0.6390
     30 H3          9.4176   -0.1196   -6.8830 H         1 <0>         0.4417
     31 O4          2.8033   -1.8916   -2.4837 O.3       1 <0>        -0.5433
     32 H4          1.0039    1.9031    0.0027 H         1 <0>         0.0811
     33 H5         -0.5459    1.8868   -0.8726 H         1 <0>         0.0830
     34 H6         -0.5289    1.8773    0.9072 H         1 <0>         0.1105
     35 H7          0.2319   -0.1594    2.1383 H         1 <0>         0.1113
     36 H8          0.7568   -1.6008    1.2356 H         1 <0>         0.0835
     37 H9          1.7647   -0.1336    1.2338 H         1 <0>         0.0805
     38 H10        -1.9605   -0.1726   -0.8702 H         1 <0>         0.0952
     39 H11        -1.4185   -1.6235    0.0069 H         1 <0>         0.0961
     40 H12        -1.5506   -1.7332    2.4289 H         1 <0>         0.1315
     41 H13        -2.7023   -0.9434    4.4558 H         1 <0>         0.1377
     42 H14        -4.0195    2.5311    2.3445 H         1 <0>         0.1348
     43 H15        -2.8574    1.7389    0.3244 H         1 <0>         0.1270
     44 H16        -5.2295    2.7584    5.5107 H         1 <0>         0.1081
     45 H17        -4.0646    3.3164    4.2859 H         1 <0>         0.0591
     46 H18        -5.5383    2.4533    3.7844 H         1 <0>         0.0601
     47 H19         0.7033   -1.4867   -1.2121 H         1 <0>         0.4317
     48 H20         2.0530    1.1205   -1.2110 H         1 <0>         0.1489
     49 H21         2.5950   -0.3304   -0.3340 H         1 <0>         0.1425
     50 H22         4.2068    1.1525   -2.3912 H         1 <0>         0.0848
     51 H23         4.7722   -0.3649   -1.6524 H         1 <0>         0.0801
     52 H24         6.2627    1.0632   -1.9802 H         1 <0>         0.1355
     53 H25         8.5944    1.7830   -2.2866 H         1 <0>         0.1417
     54 H26         9.7987    1.2348   -4.3591 H         1 <0>         0.1400
     55 H27         3.2576   -2.2830   -1.7250 H         1 <0>         0.3901
     56 H28         0.2017   -0.1436   -2.0240 H         1 <0>         0.4286
@<TRIPOS>BOND
     1    1    2 1
     2    1   32 1
     3    1   33 1
     4    1   34 1
     5    2    3 1
     6    2    4 1
     7    2   13 1
     8    3   35 1
     9    3   36 1
    10    3   37 1
    11    4    5 1
    12    4   38 1
    13    4   39 1
    14    5   10 ar
    15    5    6 ar
    16    6    7 ar
    17    6   40 1
    18    7    8 ar
    19    7   41 1
    20    8    9 ar
    21    8   11 1
    22    9   10 ar
    23    9   42 1
    24   10   43 1
    25   11   12 1
    26   12   44 1
    27   12   45 1
    28   12   46 1
    29   13   14 1
    30   13   47 1
    31   13   56 1
    32   14   15 1
    33   14   48 1
    34   14   49 1
    35   15   16 1
    36   15   17 1
    37   15   31 1
    38   17   18 1
    39   17   50 1
    40   17   51 1
    41   18   19 1
    42   19   24 ar
    43   19   20 ar
    44   20   21 ar
    45   20   52 1
    46   21   22 ar
    47   21   53 1
    48   22   23 ar
    49   22   54 1
    50   23   29 1
    51   23   24 ar
    52   24   25 1
    53   25   26 1
    54   25   27 am
    55   27   28 2
    56   27   29 am
    57   29   30 1
    58   31   55 1
@<TRIPOS>MOLECULE
CHEMBL185052
   66    68     0     0     0
SMALL
USER_CHARGES

@<TRIPOS>ATOM
      1 C1         -0.1475    1.4082    0.0981 C.ar      1 <0>        -0.1228
      2 C2          1.0380    2.1190    0.0847 C.ar      1 <0>        -0.1173
      3 C3          2.2461    1.4478    0.0587 C.ar      1 <0>        -0.1182
      4 C4          2.2688    0.0657    0.0465 C.ar      1 <0>        -0.0865
      5 C5          1.0833   -0.6452    0.0608 C.ar      1 <0>        -0.1186
      6 C6         -0.1249    0.0261    0.0854 C.ar      1 <0>        -0.1176
      7 C7          3.5859   -0.6661    0.0171 C.3       1 <0>        -0.0797
      8 C8          4.0569   -0.9260    1.4494 C.3       1 <0>        -0.1098
      9 C9          5.3941   -1.6690    1.4196 C.3       1 <0>        -0.1209
     10 C10         5.8652   -1.9289    2.8518 C.3       1 <0>         0.0579
     11 O1          7.1141   -2.6228    2.8240 O.3       1 <0>        -0.3102
     12 C11         7.6746   -2.9327    4.0226 C.ar      1 <0>         0.1517
     13 C12         7.0329   -2.5814    5.2013 C.ar      1 <0>        -0.2078
     14 C13         7.6044   -2.8980    6.4185 C.ar      1 <0>        -0.0653
     15 C14         8.8153   -3.5640    6.4626 C.ar      1 <0>        -0.1522
     16 C15         9.4571   -3.9149    5.2892 C.ar      1 <0>        -0.0666
     17 C16         8.8866   -3.6061    4.0695 C.ar      1 <0>        -0.1503
     18 C17         9.4368   -3.9077    7.7917 C.3       1 <0>        -0.0940
     19 C18         8.9519   -5.2879    8.2398 C.3       1 <0>        -0.0077
     20 N1          9.5578   -5.6230    9.5354 N.4       1 <0>        -0.5059
     21 C19         9.0922   -6.9482    9.9657 C.3       1 <0>        -0.0419
     22 C20         9.7232   -7.2971   11.3151 C.3       1 <0>         0.1374
     23 H1          9.4327   -6.5519   12.0556 H         1 <0>         0.1336
     24 C21         9.2457   -8.6566   11.7564 C.ar      1 <0>        -0.1343
     25 C22         9.8962   -9.7934   11.3133 C.ar      1 <0>        -0.1040
     26 C23         9.4624  -11.0433   11.7144 C.ar      1 <0>        -0.1194
     27 C24         8.3731  -11.1596   12.5626 C.ar      1 <0>         0.1020
     28 C25         7.7176  -10.0147   13.0097 C.ar      1 <0>         0.1237
     29 C26         8.1621   -8.7637   12.6075 C.ar      1 <0>        -0.0919
     30 N2          6.6154  -10.1261   13.8677 N.am      1 <0>        -0.6780
     31 C27         6.4089   -9.1986   14.8236 C.2       1 <0>         0.4954
     32 O2          7.1296   -8.2253   14.8899 O.2       1 <0>        -0.5354
     33 O3          7.9447  -12.3882   12.9573 O.3       1 <0>        -0.4925
     34 O4         11.1463   -7.3108   11.1862 O.3       1 <0>        -0.5463
     35 H2         -1.0913    1.9326    0.1230 H         1 <0>         0.1225
     36 H3          1.0203    3.1988    0.0942 H         1 <0>         0.1228
     37 H4          3.1723    2.0032    0.0475 H         1 <0>         0.1209
     38 H5          1.1010   -1.7250    0.0509 H         1 <0>         0.1204
     39 H6         -1.0511   -0.5293    0.0962 H         1 <0>         0.1225
     40 H7          3.4622   -1.6161   -0.5027 H         1 <0>         0.0750
     41 H8          4.3266   -0.0602   -0.5047 H         1 <0>         0.0754
     42 H9          4.1806    0.0240    1.9692 H         1 <0>         0.0680
     43 H10         3.3162   -1.5320    1.9712 H         1 <0>         0.0674
     44 H11         5.2704   -2.6190    0.8997 H         1 <0>         0.0773
     45 H12         6.1349   -1.0631    0.8978 H         1 <0>         0.0779
     46 H13         5.9889   -0.9789    3.3717 H         1 <0>         0.0659
     47 H14         5.1244   -2.5349    3.3736 H         1 <0>         0.0650
     48 H15         6.0874   -2.0605    5.1674 H         1 <0>         0.1337
     49 H16         7.1053   -2.6247    7.3364 H         1 <0>         0.1267
     50 H17        10.4030   -4.4348    5.3263 H         1 <0>         0.1313
     51 H18         9.3862   -3.8843    3.1533 H         1 <0>         0.1375
     52 H19        10.5223   -3.9182    7.6934 H         1 <0>         0.0954
     53 H20         9.1463   -3.1625    8.5322 H         1 <0>         0.0944
     54 H21         7.8664   -5.2774    8.3381 H         1 <0>         0.1324
     55 H22         9.2425   -6.0332    7.4993 H         1 <0>         0.1329
     56 H23        10.5626   -5.6327    9.4444 H         1 <0>         0.4319
     57 H24         8.0067   -6.9377   10.0640 H         1 <0>         0.1439
     58 H25         9.3828   -7.6934    9.2252 H         1 <0>         0.1377
     59 H26        10.7453   -9.7048   10.6518 H         1 <0>         0.1289
     60 H27         9.9726  -11.9292   11.3662 H         1 <0>         0.1423
     61 H28         7.6589   -7.8739   12.9558 H         1 <0>         0.1485
     62 H29         6.0010  -10.8708   13.7738 H         1 <0>         0.4225
     63 H30         5.6018   -9.3221   15.5304 H         1 <0>         0.1549
     64 H31         8.3607  -12.7076   13.7698 H         1 <0>         0.3999
     65 H32        11.4768   -7.9522   10.5423 H         1 <0>         0.3877
     66 H33         9.2888   -4.9331   10.2209 H         1 <0>         0.4296
@<TRIPOS>BOND
     1    1    6 ar
     2    1    2 ar
     3    1   35 1
     4    2    3 ar
     5    2   36 1
     6    3    4 ar
     7    3   37 1
     8    4    5 ar
     9    4    7 1
    10    5    6 ar
    11    5   38 1
    12    6   39 1
    13    7    8 1
    14    7   40 1
    15    7   41 1
    16    8    9 1
    17    8   42 1
    18    8   43 1
    19    9   10 1
    20    9   44 1
    21    9   45 1
    22   10   11 1
    23   10   46 1
    24   10   47 1
    25   11   12 1
    26   12   17 ar
    27   12   13 ar
    28   13   14 ar
    29   13   48 1
    30   14   15 ar
    31   14   49 1
    32   15   16 ar
    33   15   18 1
    34   16   17 ar
    35   16   50 1
    36   17   51 1
    37   18   19 1
    38   18   52 1
    39   18   53 1
    40   19   20 1
    41   19   54 1
    42   19   55 1
    43   20   21 1
    44   20   56 1
    45   20   66 1
    46   21   22 1
    47   21   57 1
    48   21   58 1
    49   22   23 1
    50   22   24 1
    51   22   34 1
    52   24   29 ar
    53   24   25 ar
    54   25   26 ar
    55   25   59 1
    56   26   27 ar
    57   26   60 1
    58   27   28 ar
    59   27   33 1
    60   28   29 ar
    61   28   30 1
    62   29   61 1
    63   30   31 am
    64   30   62 1
    65   31   32 2
    66   31   63 1
    67   33   64 1
    68   34   65 1
@<TRIPOS>MOLECULE
CHEMBL12949
   53    54     0     0     0
SMALL
USER_CHARGES

@<TRIPOS>ATOM
      1 C1         -0.0187    1.5258    0.0104 C.3       1 <0>        -0.1847
      2 C2          0.0021   -0.0041    0.0020 C.3       1 <0>         0.0255
      3 H1         -1.0205   -0.3814    0.0098 H         1 <0>         0.1420
      4 C3          0.7182   -0.4975   -1.2568 C.3       1 <0>        -0.1433
      5 C4          0.6303   -2.0233   -1.3286 C.3       1 <0>        -0.0830
      6 C5          1.3357   -2.5093   -2.5685 C.ar      1 <0>        -0.1439
      7 C6          0.6366   -2.6385   -3.7544 C.ar      1 <0>        -0.0702
      8 C7          1.2808   -3.0842   -4.8922 C.ar      1 <0>        -0.1482
      9 C8          2.6304   -3.4019   -4.8444 C.ar      1 <0>         0.1400
     10 C9          3.3297   -3.2709   -3.6534 C.ar      1 <0>        -0.2064
     11 C10         2.6821   -2.8198   -2.5196 C.ar      1 <0>        -0.0738
     12 O1          3.2663   -3.8410   -5.9623 O.3       1 <0>        -0.3136
     13 C11         4.6562   -4.1494   -5.8393 C.3       1 <0>         0.0245
     14 N1          0.7126   -0.4907    1.1921 N.4       1 <0>        -0.5039
     15 C12        -0.0398   -0.1189    2.3978 C.3       1 <0>        -0.0461
     16 C13         0.7001   -0.6257    3.6373 C.3       1 <0>         0.0865
     17 H2          0.8710   -1.6983    3.5452 H         1 <0>         0.1343
     18 C14        -0.1432   -0.3488    4.8835 C.3       1 <0>         0.0292
     19 O2          0.4925   -0.9247    6.0264 O.3       1 <0>        -0.3010
     20 C15        -0.1318   -0.7683    7.2243 C.ar      1 <0>         0.1088
     21 C16        -1.3337   -0.0797    7.2953 C.ar      1 <0>        -0.1914
     22 C17        -1.9679    0.0791    8.5121 C.ar      1 <0>        -0.1061
     23 C18        -1.4030   -0.4503    9.6628 C.ar      1 <0>         0.0804
     24 C19        -0.2016   -1.1397    9.5918 C.ar      1 <0>        -0.1026
     25 C20         0.4304   -1.3023    8.3743 C.ar      1 <0>        -0.1261
     26 O3         -2.0268   -0.2931   10.8609 O.3       1 <0>        -0.4957
     27 O4          1.9549    0.0485    3.7518 O.3       1 <0>        -0.5425
     28 H3          1.0039    1.9031    0.0027 H         1 <0>         0.0837
     29 H4         -0.5459    1.8868   -0.8726 H         1 <0>         0.1086
     30 H5         -0.5289    1.8773    0.9072 H         1 <0>         0.0806
     31 H6          0.2444   -0.0644   -2.1377 H         1 <0>         0.1164
     32 H7          1.7648   -0.1951   -1.2215 H         1 <0>         0.0915
     33 H8          1.1041   -2.4564   -0.4477 H         1 <0>         0.0637
     34 H9         -0.4163   -2.3257   -1.3639 H         1 <0>         0.0868
     35 H10        -0.4140   -2.3911   -3.7910 H         1 <0>         0.1304
     36 H11         0.7342   -3.1857   -5.8181 H         1 <0>         0.1360
     37 H12         4.3804   -3.5176   -3.6137 H         1 <0>         0.1323
     38 H13         3.2271   -2.7135   -1.5932 H         1 <0>         0.1220
     39 H14         4.7893   -4.9373   -5.0980 H         1 <0>         0.0586
     40 H15         5.0400   -4.4875   -6.8018 H         1 <0>         0.1068
     41 H16         5.1995   -3.2585   -5.5241 H         1 <0>         0.0581
     42 H17         0.7982   -1.4950    1.1455 H         1 <0>         0.4280
     43 H18        -0.1324    0.9660    2.4481 H         1 <0>         0.1420
     44 H19        -1.0328   -0.5668    2.3589 H         1 <0>         0.1467
     45 H20        -0.2395    0.7276    5.0252 H         1 <0>         0.0773
     46 H21        -1.1325   -0.7887    4.7578 H         1 <0>         0.0816
     47 H22        -1.7736    0.3325    6.3992 H         1 <0>         0.1285
     48 H23        -2.9034    0.6159    8.5674 H         1 <0>         0.1353
     49 H24         0.2385   -1.5517   10.4879 H         1 <0>         0.1418
     50 H25         1.3640   -1.8423    8.3184 H         1 <0>         0.1386
     51 H26        -2.6482   -1.0020   11.0768 H         1 <0>         0.3939
     52 H27         1.8791    1.0087    3.8375 H         1 <0>         0.3904
     53 H28         1.6317   -0.0761    1.2281 H         1 <0>         0.4317
@<TRIPOS>BOND
     1    1    2 1
     2    1   28 1
     3    1   29 1
     4    1   30 1
     5    2    3 1
     6    2    4 1
     7    2   14 1
     8    4    5 1
     9    4   31 1
    10    4   32 1
    11    5    6 1
    12    5   33 1
    13    5   34 1
    14    6   11 ar
    15    6    7 ar
    16    7    8 ar
    17    7   35 1
    18    8    9 ar
    19    8   36 1
    20    9   10 ar
    21    9   12 1
    22   10   11 ar
    23   10   37 1
    24   11   38 1
    25   12   13 1
    26   13   39 1
    27   13   40 1
    28   13   41 1
    29   14   15 1
    30   14   42 1
    31   14   53 1
    32   15   16 1
    33   15   43 1
    34   15   44 1
    35   16   17 1
    36   16   18 1
    37   16   27 1
    38   18   19 1
    39   18   45 1
    40   18   46 1
    41   19   20 1
    42   20   25 ar
    43   20   21 ar
    44   21   22 ar
    45   21   47 1
    46   22   23 ar
    47   22   48 1
    48   23   24 ar
    49   23   26 1
    50   24   25 ar
    51   24   49 1
    52   25   50 1
    53   26   51 1
    54   27   52 1
@<TRIPOS>MOLECULE
CHEMBL185262
   54    56     0     0     0
SMALL
USER_CHARGES

@<TRIPOS>ATOM
      1 C1          2.3369    1.3521    3.3616 C.ar      1 <0>        -0.1457
      2 C2          2.3323   -0.0299    3.3160 C.ar      1 <0>        -0.0820
      3 C3          2.7260   -0.6855    2.1656 C.ar      1 <0>        -0.1976
      4 C4          3.1262    0.0440    1.0552 C.ar      1 <0>         0.1142
      5 C5          3.1299    1.4308    1.1036 C.ar      1 <0>        -0.1408
      6 C6          2.7353    2.0814    2.2565 C.ar      1 <0>        -0.0792
      7 O1          3.5144   -0.5984   -0.0775 O.3       1 <0>        -0.2610
      8 C7          3.5933   -1.9546   -0.0465 C.ar      1 <0>         0.1077
      9 C8          2.4359   -2.7192   -0.0808 C.ar      1 <0>        -0.1314
     10 C9          2.5189   -4.0977   -0.0491 C.ar      1 <0>        -0.0927
     11 C10         3.7540   -4.7157    0.0172 C.ar      1 <0>        -0.1102
     12 C11         4.9089   -3.9562    0.0519 C.ar      1 <0>        -0.0914
     13 C12         4.8318   -2.5775    0.0138 C.ar      1 <0>        -0.1183
     14 C13         3.8415   -6.2198    0.0521 C.3       1 <0>        -0.1006
     15 C14         3.9336   -6.7586   -1.3769 C.3       1 <0>        -0.0073
     16 N1          4.0189   -8.2248   -1.3429 N.4       1 <0>        -0.5056
     17 C15         4.1072   -8.7421   -2.7149 C.3       1 <0>        -0.0421
     18 C16         4.1961  -10.2691   -2.6794 C.3       1 <0>         0.1375
     19 H1          3.3073  -10.6736   -2.1951 H         1 <0>         0.1340
     20 C17         4.2867  -10.7999   -4.0870 C.ar      1 <0>        -0.1311
     21 C18         5.5155  -10.8800   -4.7160 C.ar      1 <0>        -0.1090
     22 C19         5.6049  -11.3656   -6.0073 C.ar      1 <0>        -0.1158
     23 C20         4.4615  -11.7736   -6.6749 C.ar      1 <0>         0.0956
     24 C21         3.2234  -11.6936   -6.0417 C.ar      1 <0>         0.1289
     25 C22         3.1423  -11.2105   -4.7438 C.ar      1 <0>        -0.1028
     26 N2          2.0636  -12.1049   -6.7119 N.am      1 <0>        -0.6749
     27 C23         0.9876  -12.5112   -6.0094 C.2       1 <0>         0.4953
     28 O2          1.0549  -12.6152   -4.8028 O.2       1 <0>        -0.5335
     29 O3          4.5477  -12.2506   -7.9453 O.3       1 <0>        -0.4927
     30 O4          5.3583  -10.6617   -1.9466 O.3       1 <0>        -0.5464
     31 H2          2.0245    1.8628    4.2605 H         1 <0>         0.1294
     32 H3          2.0210   -0.5972    4.1806 H         1 <0>         0.1279
     33 H4          2.7225   -1.7649    2.1305 H         1 <0>         0.1255
     34 H5          3.4414    2.0009    0.2409 H         1 <0>         0.1348
     35 H6          2.7377    3.1608    2.2946 H         1 <0>         0.1357
     36 H7          1.4709   -2.2369   -0.1319 H         1 <0>         0.1376
     37 H8          1.6183   -4.6932   -0.0758 H         1 <0>         0.1330
     38 H9          5.8724   -4.4414    0.1040 H         1 <0>         0.1341
     39 H10         5.7343   -1.9848    0.0361 H         1 <0>         0.1394
     40 H11         4.7281   -6.5193    0.6111 H         1 <0>         0.0988
     41 H12         2.9528   -6.6243    0.5364 H         1 <0>         0.0985
     42 H13         3.0470   -6.4592   -1.9359 H         1 <0>         0.1342
     43 H14         4.8223   -6.3541   -1.8612 H         1 <0>         0.1341
     44 H15         4.8395   -8.5020   -0.8254 H         1 <0>         0.4322
     45 H16         3.2207   -8.4426   -3.2739 H         1 <0>         0.1445
     46 H17         4.9960   -8.3376   -3.1992 H         1 <0>         0.1381
     47 H18         6.4078  -10.5620   -4.1973 H         1 <0>         0.1283
     48 H19         6.5661  -11.4265   -6.4958 H         1 <0>         0.1422
     49 H20         2.1845  -11.1513   -4.2483 H         1 <0>         0.1544
     50 H21         2.0352  -12.0972   -7.6815 H         1 <0>         0.4233
     51 H22         0.0653  -12.7443   -6.5209 H         1 <0>         0.1556
     52 H23         4.6809  -13.2070   -7.9982 H         1 <0>         0.3993
     53 H24         6.1882  -10.3362   -2.3213 H         1 <0>         0.3878
     54 H25         3.1962   -8.5992   -0.8945 H         1 <0>         0.4301
@<TRIPOS>BOND
     1    1    6 ar
     2    1    2 ar
     3    1   31 1
     4    2    3 ar
     5    2   32 1
     6    3    4 ar
     7    3   33 1
     8    4    5 ar
     9    4    7 1
    10    5    6 ar
    11    5   34 1
    12    6   35 1
    13    7    8 1
    14    8   13 ar
    15    8    9 ar
    16    9   10 ar
    17    9   36 1
    18   10   11 ar
    19   10   37 1
    20   11   12 ar
    21   11   14 1
    22   12   13 ar
    23   12   38 1
    24   13   39 1
    25   14   15 1
    26   14   40 1
    27   14   41 1
    28   15   16 1
    29   15   42 1
    30   15   43 1
    31   16   17 1
    32   16   44 1
    33   16   54 1
    34   17   18 1
    35   17   45 1
    36   17   46 1
    37   18   19 1
    38   18   20 1
    39   18   30 1
    40   20   25 ar
    41   20   21 ar
    42   21   22 ar
    43   21   47 1
    44   22   23 ar
    45   22   48 1
    46   23   24 ar
    47   23   29 1
    48   24   25 ar
    49   24   26 1
    50   25   49 1
    51   26   27 am
    52   26   50 1
    53   27   28 2
    54   27   51 1
    55   29   52 1
    56   30   53 1
@<TRIPOS>MOLECULE
CHEMBL156754
   66    68     0     0     0
SMALL
USER_CHARGES

@<TRIPOS>ATOM
      1 C1         -0.0187    1.5258    0.0104 C.3       1 <0>        -0.1713
      2 C2          0.0021   -0.0041    0.0020 C.3       1 <0>         0.1814
      3 C3         -1.4333   -0.5336    0.0129 C.3       1 <0>        -0.1345
      4 C4         -1.4126   -2.0635    0.0045 C.3       1 <0>        -0.1089
      5 C5         -0.6726   -2.5703    1.2440 C.3       1 <0>        -0.1014
      6 C6          0.7628   -2.0407    1.2331 C.3       1 <0>        -0.1327
      7 C7          0.7421   -0.5109    1.2415 C.3       1 <0>        -0.1221
      8 C8         -0.6518   -4.1002    1.2356 C.3       1 <0>         0.0596
      9 C9         -2.0829   -4.6290    1.1207 C.3       1 <0>        -0.1806
     10 C10         0.1711   -4.5925    0.0434 C.3       1 <0>        -0.1827
     11 N1         -0.0480   -4.5885    2.4825 N.4       1 <0>        -0.4987
     12 C11        -0.0280   -6.0574    2.4744 C.3       1 <0>        -0.0518
     13 C12         0.6009   -6.5661    3.7731 C.3       1 <0>         0.0876
     14 C13         0.7358   -8.0889    3.7122 C.3       1 <0>         0.0292
     15 O1          1.4280   -8.5526    4.8731 O.3       1 <0>        -0.2949
     16 C14         1.6326   -9.8912    4.9753 C.ar      1 <0>         0.1811
     17 C15         1.1850  -10.7400    3.9824 C.ar      1 <0>        -0.2416
     18 C16         1.3923  -12.1082    4.0825 C.ar      1 <0>        -0.0458
     19 C17         2.0459  -12.6432    5.1711 C.ar      1 <0>        -0.1577
     20 C18         2.5072  -11.8105    6.1859 C.ar      1 <0>         0.1574
     21 C19         2.3061  -10.4203    6.0893 C.ar      1 <0>        -0.1343
     22 C20         2.8788   -9.8375    7.2446 C.2       1 <0>        -0.0927
     23 C21         3.4054  -10.8403    7.9970 C.2       1 <0>         0.1261
     24 N2          3.1770  -12.0479    7.3648 N.pl3     1 <0>        -0.5672
     25 H1          3.4527  -12.9182    7.6926 H         1 <0>         0.4298
     26 C22         4.0783  -10.6729    9.2500 C.1       1 <0>         0.2614
     27 N3          4.6120  -10.5402   10.2439 N.1       1 <0>        -0.3757
     28 O2         -0.2303   -6.2053    4.8781 O.3       1 <0>        -0.5420
     29 N4          0.6878   -0.4765   -1.2033 N.am      1 <0>        -0.7220
     30 C23         0.2113   -0.1507   -2.4212 C.2       1 <0>         0.5127
     31 O3         -0.7852    0.5337   -2.5193 O.2       1 <0>        -0.4978
     32 C24         0.9167   -0.6367   -3.6611 C.3       1 <0>        -0.1249
     33 Br1        -0.0342    0.0146   -5.2538 Br        1 <0>        -0.0887
     34 H2          1.0039    1.9031    0.0027 H         1 <0>         0.0594
     35 H3         -0.5459    1.8868   -0.8726 H         1 <0>         0.0838
     36 H4         -0.5289    1.8773    0.9072 H         1 <0>         0.0674
     37 H5         -1.9435   -0.1821    0.9097 H         1 <0>         0.0766
     38 H6         -1.9605   -0.1726   -0.8702 H         1 <0>         0.0984
     39 H7         -2.4352   -2.4408    0.0122 H         1 <0>         0.0782
     40 H8         -0.9024   -2.4150   -0.8923 H         1 <0>         0.0741
     41 H9         -1.1828   -2.2188    2.1408 H         1 <0>         0.0982
     42 H10         1.2900   -2.4018    2.1162 H         1 <0>         0.0632
     43 H11         1.2730   -2.3923    0.3363 H         1 <0>         0.0808
     44 H12         1.7647   -0.1336    1.2338 H         1 <0>         0.0824
     45 H13         0.2319   -0.1594    2.1383 H         1 <0>         0.0879
     46 H14        -2.5310   -4.2666    0.1955 H         1 <0>         0.1104
     47 H15        -2.0681   -5.7189    1.1147 H         1 <0>         0.0818
     48 H16        -2.6692   -4.2782    1.9700 H         1 <0>         0.0844
     49 H17         1.1906   -4.2157    0.1252 H         1 <0>         0.0856
     50 H18         0.1859   -5.6824    0.0374 H         1 <0>         0.0826
     51 H19        -0.2770   -4.2301   -0.8818 H         1 <0>         0.1084
     52 H20         0.8958   -4.2398    2.5583 H         1 <0>         0.4257
     53 H21        -1.0476   -6.4341    2.3925 H         1 <0>         0.1431
     54 H22         0.5582   -6.4081    1.6251 H         1 <0>         0.1480
     55 H23         1.5869   -6.1187    3.8989 H         1 <0>         0.1338
     56 H24        -0.2557   -8.5403    3.6758 H         1 <0>         0.0796
     57 H25         1.2954   -8.3686    2.8196 H         1 <0>         0.0836
     58 H26         0.6703  -10.3365    3.1230 H         1 <0>         0.1278
     59 H27         1.0371  -12.7610    3.2988 H         1 <0>         0.1357
     60 H28         2.2001  -13.7101    5.2370 H         1 <0>         0.1316
     61 H29         2.8951   -8.7848    7.4854 H         1 <0>         0.1601
     62 H30        -1.1250   -6.5694    4.8326 H         1 <0>         0.3904
     63 H31         1.4848   -1.0239   -1.1249 H         1 <0>         0.3978
     64 H32         1.9393   -0.2594   -3.6688 H         1 <0>         0.1274
     65 H33         0.9314   -1.7265   -3.6671 H         1 <0>         0.1238
     66 H34        -0.5906   -4.2639    3.2687 H         1 <0>         0.4320
@<TRIPOS>BOND
     1    1    2 1
     2    1   34 1
     3    1   35 1
     4    1   36 1
     5    2    7 1
     6    2    3 1
     7    2   29 1
     8    3    4 1
     9    3   37 1
    10    3   38 1
    11    4    5 1
    12    4   39 1
    13    4   40 1
    14    5    6 1
    15    5    8 1
    16    5   41 1
    17    6    7 1
    18    6   42 1
    19    6   43 1
    20    7   44 1
    21    7   45 1
    22    8    9 1
    23    8   10 1
    24    8   11 1
    25    9   46 1
    26    9   47 1
    27    9   48 1
    28   10   49 1
    29   10   50 1
    30   10   51 1
    31   11   12 1
    32   11   52 1
    33   11   66 1
    34   12   13 1
    35   12   53 1
    36   12   54 1
    37   13   14 1
    38   13   28 1
    39   13   55 1
    40   14   15 1
    41   14   56 1
    42   14   57 1
    43   15   16 1
    44   16   21 ar
    45   16   17 ar
    46   17   18 ar
    47   17   58 1
    48   18   19 ar
    49   18   59 1
    50   19   20 ar
    51   19   60 1
    52   20   24 1
    53   20   21 ar
    54   21   22 1
    55   22   23 2
    56   22   61 1
    57   23   24 1
    58   23   26 1
    59   24   25 1
    60   26   27 3
    61   28   62 1
    62   29   30 am
    63   29   63 1
    64   30   31 2
    65   30   32 1
    66   32   33 1
    67   32   64 1
    68   32   65 1
@<TRIPOS>MOLECULE
CHEMBL156754
   66    68     0     0     0
SMALL
USER_CHARGES

@<TRIPOS>ATOM
      1 C1         -0.0187    1.5258    0.0104 C.3       1 <0>        -0.1713
      2 C2          0.0021   -0.0041    0.0020 C.3       1 <0>         0.1813
      3 C3         -1.4333   -0.5336    0.0129 C.3       1 <0>        -0.1345
      4 C4         -1.4126   -2.0635    0.0045 C.3       1 <0>        -0.1090
      5 C5         -0.6726   -2.5703    1.2440 C.3       1 <0>        -0.1015
      6 C6          0.7628   -2.0407    1.2331 C.3       1 <0>        -0.1327
      7 C7          0.7421   -0.5109    1.2415 C.3       1 <0>        -0.1220
      8 C8         -0.6518   -4.1002    1.2356 C.3       1 <0>         0.0595
      9 C9         -2.0829   -4.6290    1.1207 C.3       1 <0>        -0.1813
     10 C10         0.1711   -4.5925    0.0434 C.3       1 <0>        -0.1822
     11 N1         -0.0480   -4.5885    2.4825 N.4       1 <0>        -0.4983
     12 C11        -0.0280   -6.0574    2.4744 C.3       1 <0>        -0.0519
     13 C12         0.6009   -6.5661    3.7731 C.3       1 <0>         0.0872
     14 C13         0.6217   -8.0959    3.7647 C.3       1 <0>         0.0293
     15 O1          1.1009   -8.5727    5.0236 O.3       1 <0>        -0.2948
     16 C14         1.1816   -9.9189    5.1829 C.ar      1 <0>         0.1811
     17 C15         0.8152  -10.7632    4.1535 C.ar      1 <0>        -0.2416
     18 C16         0.8965  -12.1392    4.3116 C.ar      1 <0>        -0.0458
     19 C17         1.3425  -12.6865    5.4950 C.ar      1 <0>        -0.1577
     20 C18         1.7180  -11.8586    6.5483 C.ar      1 <0>         0.1574
     21 C19         1.6440  -10.4610    6.3940 C.ar      1 <0>        -0.1343
     22 C20         2.0894   -9.8860    7.6078 C.2       1 <0>        -0.0926
     23 C21         2.4212  -10.9007    8.4499 C.2       1 <0>         0.1261
     24 N2          2.1906  -12.1075    7.8169 N.pl3     1 <0>        -0.5672
     25 H1          2.3463  -12.9851    8.1997 H         1 <0>         0.4298
     26 C22         2.9183  -10.7442    9.7837 C.1       1 <0>         0.2613
     27 N3          3.3126  -10.6200   10.8418 N.1       1 <0>        -0.3757
     28 O2          1.9375   -6.0721    3.8804 O.3       1 <0>        -0.5428
     29 N4          0.6878   -0.4765   -1.2033 N.am      1 <0>        -0.7220
     30 C23         0.2113   -0.1507   -2.4212 C.2       1 <0>         0.5127
     31 O3         -0.7852    0.5337   -2.5193 O.2       1 <0>        -0.4978
     32 C24         0.9167   -0.6367   -3.6611 C.3       1 <0>        -0.1249
     33 Br1        -0.0342    0.0146   -5.2538 Br        1 <0>        -0.0887
     34 H2          1.0039    1.9031    0.0027 H         1 <0>         0.0594
     35 H3         -0.5459    1.8868   -0.8726 H         1 <0>         0.0838
     36 H4         -0.5289    1.8773    0.9072 H         1 <0>         0.0674
     37 H5         -1.9435   -0.1821    0.9097 H         1 <0>         0.0766
     38 H6         -1.9605   -0.1726   -0.8702 H         1 <0>         0.0984
     39 H7         -2.4352   -2.4408    0.0122 H         1 <0>         0.0783
     40 H8         -0.9024   -2.4150   -0.8923 H         1 <0>         0.0741
     41 H9         -1.1828   -2.2188    2.1408 H         1 <0>         0.0981
     42 H10         1.2900   -2.4018    2.1162 H         1 <0>         0.0642
     43 H11         1.2730   -2.3923    0.3363 H         1 <0>         0.0804
     44 H12         1.7647   -0.1336    1.2338 H         1 <0>         0.0825
     45 H13         0.2319   -0.1594    2.1383 H         1 <0>         0.0878
     46 H14        -2.5310   -4.2666    0.1955 H         1 <0>         0.1105
     47 H15        -2.0681   -5.7189    1.1147 H         1 <0>         0.0824
     48 H16        -2.6692   -4.2782    1.9700 H         1 <0>         0.0847
     49 H17         1.1906   -4.2157    0.1252 H         1 <0>         0.0853
     50 H18         0.1859   -5.6824    0.0374 H         1 <0>         0.0820
     51 H19        -0.2770   -4.2301   -0.8818 H         1 <0>         0.1083
     52 H20         0.8958   -4.2398    2.5583 H         1 <0>         0.4291
     53 H21        -1.0476   -6.4341    2.3925 H         1 <0>         0.1493
     54 H22         0.5582   -6.4081    1.6251 H         1 <0>         0.1418
     55 H23         0.0147   -6.2153    4.6224 H         1 <0>         0.1357
     56 H24        -0.3870   -8.4720    3.5938 H         1 <0>         0.0841
     57 H25         1.2795   -8.4460    2.9692 H         1 <0>         0.0791
     58 H26         0.4629  -10.3501    3.2199 H         1 <0>         0.1278
     59 H27         0.6068  -12.7884    3.4986 H         1 <0>         0.1357
     60 H28         1.4003  -13.7593    5.6051 H         1 <0>         0.1316
     61 H29         2.1546   -8.8303    7.8261 H         1 <0>         0.1601
     62 H30         2.5172   -6.3457    3.1564 H         1 <0>         0.3891
     63 H31         1.4848   -1.0239   -1.1249 H         1 <0>         0.3978
     64 H32         1.9393   -0.2594   -3.6688 H         1 <0>         0.1274
     65 H33         0.9314   -1.7265   -3.6671 H         1 <0>         0.1237
     66 H34        -0.5906   -4.2639    3.2687 H         1 <0>         0.4286
@<TRIPOS>BOND
     1    1    2 1
     2    1   34 1
     3    1   35 1
     4    1   36 1
     5    2    7 1
     6    2    3 1
     7    2   29 1
     8    3    4 1
     9    3   37 1
    10    3   38 1
    11    4    5 1
    12    4   39 1
    13    4   40 1
    14    5    6 1
    15    5    8 1
    16    5   41 1
    17    6    7 1
    18    6   42 1
    19    6   43 1
    20    7   44 1
    21    7   45 1
    22    8    9 1
    23    8   10 1
    24    8   11 1
    25    9   46 1
    26    9   47 1
    27    9   48 1
    28   10   49 1
    29   10   50 1
    30   10   51 1
    31   11   12 1
    32   11   52 1
    33   11   66 1
    34   12   13 1
    35   12   53 1
    36   12   54 1
    37   13   14 1
    38   13   28 1
    39   13   55 1
    40   14   15 1
    41   14   56 1
    42   14   57 1
    43   15   16 1
    44   16   21 ar
    45   16   17 ar
    46   17   18 ar
    47   17   58 1
    48   18   19 ar
    49   18   59 1
    50   19   20 ar
    51   19   60 1
    52   20   24 1
    53   20   21 ar
    54   21   22 1
    55   22   23 2
    56   22   61 1
    57   23   24 1
    58   23   26 1
    59   24   25 1
    60   26   27 3
    61   28   62 1
    62   29   30 am
    63   29   63 1
    64   30   31 2
    65   30   32 1
    66   32   33 1
    67   32   64 1
    68   32   65 1
@<TRIPOS>MOLECULE
CHEMBL1221861
   42    44     0     0     0
SMALL
USER_CHARGES

@<TRIPOS>ATOM
      1 C1         -0.0168    1.3854    0.0097 C.ar      1 <0>        -0.0804
      2 C2          1.1704    2.0906    0.0021 C.ar      1 <0>        -0.0869
      3 C3          2.3782    1.4150   -0.0130 C.ar      1 <0>        -0.0330
      4 C4          2.4002    0.0312   -0.0207 C.ar      1 <0>        -0.0890
      5 C5          1.2163   -0.6796   -0.0132 C.ar      1 <0>        -0.1205
      6 C6          0.0021   -0.0041    0.0020 C.ar      1 <0>        -0.0946
      7 S1         -1.5106   -0.9075    0.0122 S.3       1 <0>        -0.0501
      8 C7         -0.9850   -2.6436   -0.0023 C.3       1 <0>        -0.1668
      9 C8         -2.2178   -3.5498    0.0050 C.3       1 <0>         0.0098
     10 N1         -1.7922   -4.9557   -0.0067 N.4       1 <0>        -0.5021
     11 C9         -2.9758   -5.8258    0.0004 C.3       1 <0>        -0.0455
     12 C10        -2.5325   -7.2901   -0.0119 C.3       1 <0>         0.1632
     13 H1         -1.9266   -7.4937    0.8710 H         1 <0>         0.1163
     14 C11        -3.7467   -8.1826   -0.0046 C.ar      1 <0>        -0.2356
     15 C12        -4.2534   -8.6766   -1.1943 C.ar      1 <0>        -0.0374
     16 C13        -5.3691   -9.4949   -1.1639 C.ar      1 <0>        -0.2396
     17 C14        -5.9812   -9.8244    0.0271 C.ar      1 <0>         0.3008
     18 C15        -5.4859   -9.3353    1.2519 C.ar      1 <0>        -0.0287
     19 C16        -4.3525   -8.5143    1.1838 C.ar      1 <0>        -0.0474
     20 S2         -4.0363   -8.1185    2.8866 S.3       1 <0>        -0.1202
     21 C17        -5.3840   -9.0417    3.6070 C.2       1 <0>         0.5383
     22 O1         -5.6896   -9.1544    4.7799 O.2       1 <0>        -0.4750
     23 N2         -5.9847   -9.5727    2.5239 N.am      1 <0>        -0.6198
     24 H2         -6.7662  -10.1362    2.6359 H         1 <0>         0.4157
     25 O2         -7.0761  -10.6307    0.0192 O.3       1 <0>        -0.6850
     26 O3         -1.7613   -7.5445   -1.1878 O.3       1 <0>        -0.5549
     27 Cl1         3.8686    2.3051   -0.0231 Cl        1 <0>        -0.0544
     28 H3         -0.9589    1.9131    0.0260 H         1 <0>         0.1417
     29 H4          1.1564    3.1705    0.0077 H         1 <0>         0.1450
     30 H5          3.3442   -0.4932   -0.0329 H         1 <0>         0.1411
     31 H6          1.2341   -1.7594   -0.0195 H         1 <0>         0.1294
     32 H7         -0.3968   -2.8377   -0.8993 H         1 <0>         0.1123
     33 H8         -0.3792   -2.8472    0.8806 H         1 <0>         0.1125
     34 H9         -2.8060   -3.3558    0.9020 H         1 <0>         0.1432
     35 H10        -2.8237   -3.3462   -0.8779 H         1 <0>         0.1425
     36 H11        -1.2477   -5.1354   -0.8370 H         1 <0>         0.4298
     37 H12        -3.5640   -5.6317    0.8973 H         1 <0>         0.1431
     38 H13        -3.5817   -5.6222   -0.8826 H         1 <0>         0.1387
     39 H14        -3.7842   -8.4263   -2.1343 H         1 <0>         0.1132
     40 H15        -5.7679   -9.8822   -2.0899 H         1 <0>         0.1177
     41 H16        -2.2384   -7.3839   -2.0134 H         1 <0>         0.3842
     42 H17        -1.2313   -5.1442    0.8106 H         1 <0>         0.4282
@<TRIPOS>BOND
     1    1    6 ar
     2    1    2 ar
     3    1   28 1
     4    2    3 ar
     5    2   29 1
     6    3    4 ar
     7    3   27 1
     8    4    5 ar
     9    4   30 1
    10    5    6 ar
    11    5   31 1
    12    6    7 1
    13    7    8 1
    14    8    9 1
    15    8   32 1
    16    8   33 1
    17    9   10 1
    18    9   34 1
    19    9   35 1
    20   10   11 1
    21   10   36 1
    22   10   42 1
    23   11   12 1
    24   11   37 1
    25   11   38 1
    26   12   13 1
    27   12   14 1
    28   12   26 1
    29   14   19 ar
    30   14   15 ar
    31   15   16 ar
    32   15   39 1
    33   16   17 ar
    34   16   40 1
    35   17   18 ar
    36   17   25 1
    37   18   23 1
    38   18   19 ar
    39   19   20 1
    40   20   21 1
    41   21   22 2
    42   21   23 am
    43   23   24 1
    44   26   41 1
@<TRIPOS>MOLECULE
CHEMBL1221682
   51    54     0     0     0
SMALL
USER_CHARGES

@<TRIPOS>ATOM
      1 C1         -0.4207    1.7410   -0.0084 C.ar      1 <0>        -0.0379
      2 C2          0.7086    2.5416   -0.0197 C.ar      1 <0>        -0.2401
      3 C3          1.9732    1.9926   -0.0343 C.ar      1 <0>         0.3004
      4 C4          2.1527    0.5949   -0.0377 C.ar      1 <0>        -0.0287
      5 C5          0.9885   -0.1840   -0.0255 C.ar      1 <0>        -0.0475
      6 C6         -0.2720    0.3652   -0.0114 C.ar      1 <0>        -0.2322
      7 C7         -1.4862   -0.5273    0.0013 C.3       1 <0>         0.1628
      8 H1         -1.2739   -1.4213    0.5875 H         1 <0>         0.1146
      9 C8         -1.8387   -0.9292   -1.4323 C.3       1 <0>        -0.0501
     10 N1         -3.0223   -1.7992   -1.4200 N.4       1 <0>        -0.5083
     11 C9         -3.3607   -2.1851   -2.7964 C.3       1 <0>         0.0221
     12 H2         -2.4821   -2.5930   -3.2962 H         1 <0>         0.1421
     13 C10        -3.8903   -0.9620   -3.5731 C.3       1 <0>        -0.1420
     14 C11        -5.0083   -1.5402   -4.4758 C.3       1 <0>        -0.1232
     15 C12        -5.6735   -2.5982   -3.5608 C.3       1 <0>        -0.1292
     16 C13        -4.4936   -3.2264   -2.7885 C.3       1 <0>        -0.1010
     17 H3         -4.1651   -4.1393   -3.2852 H         1 <0>         0.1094
     18 C14        -4.9129   -3.5337   -1.3495 C.3       1 <0>        -0.1136
     19 C15        -5.9762   -4.6514   -1.3362 C.3       1 <0>        -0.1149
     20 C16        -6.9417   -4.2435   -0.1958 C.3       1 <0>        -0.1288
     21 C17        -7.0089   -2.7028   -0.3394 C.3       1 <0>        -0.1186
     22 C18        -5.5695   -2.2948   -0.7158 C.3       1 <0>        -0.1612
     23 O1         -2.5868    0.1740    0.5836 O.3       1 <0>        -0.5549
     24 S1          1.6136   -1.8469   -0.0334 S.3       1 <0>        -0.1198
     25 C19         3.3551   -1.4538   -0.0522 C.2       1 <0>         0.5378
     26 O2          4.3075   -2.2117   -0.0631 O.2       1 <0>        -0.4759
     27 N2          3.3490   -0.1063   -0.0512 N.am      1 <0>        -0.6196
     28 H4          4.1895    0.3778   -0.0600 H         1 <0>         0.4154
     29 O3          3.0601    2.8095   -0.0461 O.3       1 <0>        -0.6868
     30 H5         -1.4053    2.1845    0.0071 H         1 <0>         0.1127
     31 H6          0.5971    3.6158   -0.0174 H         1 <0>         0.1173
     32 H7         -2.0510   -0.0352   -2.0186 H         1 <0>         0.1349
     33 H8         -0.9992   -1.4641   -1.8765 H         1 <0>         0.1400
     34 H9         -2.8258   -2.6268   -0.8773 H         1 <0>         0.4231
     35 H10        -4.2996   -0.2216   -2.8858 H         1 <0>         0.0857
     36 H11        -3.0983   -0.5235   -4.1803 H         1 <0>         0.0990
     37 H12        -5.7223   -0.7641   -4.7514 H         1 <0>         0.0862
     38 H13        -4.5841   -2.0093   -5.3636 H         1 <0>         0.0819
     39 H14        -6.3708   -2.1220   -2.8714 H         1 <0>         0.0865
     40 H15        -6.1828   -3.3537   -4.1589 H         1 <0>         0.0835
     41 H16        -4.0445   -3.8365   -0.7644 H         1 <0>         0.0757
     42 H17        -6.5045   -4.6867   -2.2889 H         1 <0>         0.0766
     43 H18        -5.5145   -5.6146   -1.1190 H         1 <0>         0.0735
     44 H19        -7.9254   -4.6886   -0.3448 H         1 <0>         0.0738
     45 H20        -6.5329   -4.5235    0.7751 H         1 <0>         0.0716
     46 H21        -7.7039   -2.4234   -1.1312 H         1 <0>         0.0720
     47 H22        -7.3008   -2.2439    0.6052 H         1 <0>         0.0741
     48 H23        -5.0203   -1.9968    0.1774 H         1 <0>         0.0761
     49 H24        -5.5894   -1.4745   -1.4333 H         1 <0>         0.0773
     50 H25        -2.8316    0.9823    0.1126 H         1 <0>         0.3827
     51 H26        -3.7994   -1.3040   -1.0088 H         1 <0>         0.4253
@<TRIPOS>BOND
     1    1    6 ar
     2    1    2 ar
     3    1   30 1
     4    2    3 ar
     5    2   31 1
     6    3    4 ar
     7    3   29 1
     8    4   27 1
     9    4    5 ar
    10    5    6 ar
    11    5   24 1
    12    6    7 1
    13    7    8 1
    14    7    9 1
    15    7   23 1
    16    9   10 1
    17    9   32 1
    18    9   33 1
    19   10   11 1
    20   10   34 1
    21   10   51 1
    22   11   12 1
    23   11   16 1
    24   11   13 1
    25   13   14 1
    26   13   35 1
    27   13   36 1
    28   14   15 1
    29   14   37 1
    30   14   38 1
    31   15   16 1
    32   15   39 1
    33   15   40 1
    34   16   17 1
    35   16   18 1
    36   18   22 1
    37   18   19 1
    38   18   41 1
    39   19   20 1
    40   19   42 1
    41   19   43 1
    42   20   21 1
    43   20   44 1
    44   20   45 1
    45   21   22 1
    46   21   46 1
    47   21   47 1
    48   22   48 1
    49   22   49 1
    50   23   50 1
    51   24   25 1
    52   25   26 2
    53   25   27 am
    54   27   28 1
@<TRIPOS>MOLECULE
CHEMBL136936
   54    57     0     0     0
SMALL
USER_CHARGES

@<TRIPOS>ATOM
      1 C1         -0.0173    1.4248    0.0099 C.3       1 <0>         0.0229
      2 O1          0.0021   -0.0041    0.0020 O.3       1 <0>        -0.3112
      3 C2         -1.2013   -0.6380    0.0101 C.ar      1 <0>         0.1288
      4 C3         -2.3740    0.0989    0.0195 C.ar      1 <0>        -0.2022
      5 C4         -3.5967   -0.5469    0.0283 C.ar      1 <0>        -0.0670
      6 C5         -3.6532   -1.9283    0.0271 C.ar      1 <0>        -0.1489
      7 C6         -2.4875   -2.6710    0.0173 C.ar      1 <0>        -0.0820
      8 C7         -1.2572   -2.0300    0.0032 C.ar      1 <0>         0.1089
      9 N1         -0.0754   -2.7797   -0.0127 N.pl3     1 <0>        -0.6632
     10 C8          0.5725   -3.1969    1.2404 C.3       1 <0>         0.1219
     11 C9          0.8530   -4.7014    1.1647 C.3       1 <0>        -0.0222
     12 N2          1.6309   -4.9929   -0.0461 N.4       1 <0>        -0.3802
     13 C10         0.8351   -4.6789   -1.2395 C.3       1 <0>        -0.0269
     14 C11         0.5506   -3.1781   -1.2829 C.3       1 <0>         0.1224
     15 C12         1.9935   -6.4164   -0.0621 C.3       1 <0>        -0.0070
     16 C13         2.9078   -6.6964   -1.2565 C.3       1 <0>        -0.1788
     17 C14         3.2853   -8.1790   -1.2732 C.3       1 <0>         0.1734
     18 C15         4.2820   -8.4311   -2.3751 C.2       1 <0>        -0.1518
     19 C16         3.8682   -8.8486   -3.5801 C.2       1 <0>        -0.1440
     20 S1          5.3806   -8.9979   -4.5116 S.3       1 <0>         0.0627
     21 C17         6.5283   -8.4950   -3.2557 C.ar      1 <0>        -0.1145
     22 C18         5.7032   -8.2181   -2.1438 C.ar      1 <0>        -0.0884
     23 C19         6.3531   -7.7810   -0.9656 C.ar      1 <0>        -0.0856
     24 C20         7.7047   -7.6369   -0.9301 C.ar      1 <0>        -0.1145
     25 C21         8.4933   -7.9113   -2.0391 C.ar      1 <0>        -0.0888
     26 C22         7.8978   -8.3497   -3.2056 C.ar      1 <0>        -0.0717
     27 O2          2.1146   -8.9661   -1.5006 O.3       1 <0>        -0.5469
     28 H1          1.0053    1.8021    0.0021 H         1 <0>         0.1035
     29 H2         -0.5445    1.7859   -0.8732 H         1 <0>         0.0588
     30 H3         -0.5275    1.7763    0.9067 H         1 <0>         0.0589
     31 H4         -2.3335    1.1781    0.0204 H         1 <0>         0.1340
     32 H5         -4.5101    0.0293    0.0363 H         1 <0>         0.1320
     33 H6         -4.6104   -2.4284    0.0343 H         1 <0>         0.1307
     34 H7         -2.5344   -3.7500    0.0168 H         1 <0>         0.1267
     35 H8          1.5101   -2.6554    1.3659 H         1 <0>         0.0775
     36 H9         -0.0891   -2.9896    2.0815 H         1 <0>         0.1142
     37 H10         1.4191   -5.0102    2.0435 H         1 <0>         0.1360
     38 H11        -0.0906   -5.2458    1.1302 H         1 <0>         0.1304
     39 H12         1.3880   -4.9711   -2.1323 H         1 <0>         0.1348
     40 H13        -0.1080   -5.2240   -1.2012 H         1 <0>         0.1307
     41 H14        -0.1254   -2.9583   -2.1092 H         1 <0>         0.1135
     42 H15         1.4860   -2.6346   -1.4165 H         1 <0>         0.0766
     43 H16         2.5145   -6.6690    0.8613 H         1 <0>         0.1321
     44 H17         1.0901   -7.0204   -0.1466 H         1 <0>         0.1364
     45 H18         2.3868   -6.4437   -2.1800 H         1 <0>         0.0933
     46 H19         3.8111   -6.0923   -1.1721 H         1 <0>         0.0996
     47 H20         3.7265   -8.4524   -0.3147 H         1 <0>         0.1181
     48 H21         2.8586   -9.0476   -3.9081 H         1 <0>         0.1896
     49 H22         5.7691   -7.5590   -0.0846 H         1 <0>         0.1202
     50 H23         8.1757   -7.3010   -0.0181 H         1 <0>         0.1312
     51 H24         9.5652   -7.7893   -1.9881 H         1 <0>         0.1400
     52 H25         8.5000   -8.5659   -4.0757 H         1 <0>         0.1366
     53 H26         1.6690   -8.7757   -2.3375 H         1 <0>         0.3787
     54 H27         2.4712   -4.4343   -0.0471 H         1 <0>         0.4212
@<TRIPOS>BOND
     1    1    2 1
     2    1   28 1
     3    1   29 1
     4    1   30 1
     5    2    3 1
     6    3    8 ar
     7    3    4 ar
     8    4    5 ar
     9    4   31 1
    10    5    6 ar
    11    5   32 1
    12    6    7 ar
    13    6   33 1
    14    7    8 ar
    15    7   34 1
    16    8    9 1
    17    9   14 1
    18    9   10 1
    19   10   11 1
    20   10   35 1
    21   10   36 1
    22   11   12 1
    23   11   37 1
    24   11   38 1
    25   12   13 1
    26   12   15 1
    27   12   54 1
    28   13   14 1
    29   13   39 1
    30   13   40 1
    31   14   41 1
    32   14   42 1
    33   15   16 1
    34   15   43 1
    35   15   44 1
    36   16   17 1
    37   16   45 1
    38   16   46 1
    39   17   18 1
    40   17   27 1
    41   17   47 1
    42   18   22 1
    43   18   19 2
    44   19   20 1
    45   19   48 1
    46   20   21 1
    47   21   26 ar
    48   21   22 ar
    49   22   23 ar
    50   23   24 ar
    51   23   49 1
    52   24   25 ar
    53   24   50 1
    54   25   26 ar
    55   25   51 1
    56   26   52 1
    57   27   53 1
@<TRIPOS>MOLECULE
CHEMBL136936
   53    56     0     0     0
SMALL
USER_CHARGES

@<TRIPOS>ATOM
      1 C1         -0.0173    1.4248    0.0099 C.3       1 <0>         0.0252
      2 O1          0.0021   -0.0041    0.0020 O.3       1 <0>        -0.3040
      3 C2          0.6263   -0.6189    1.0423 C.ar      1 <0>         0.1195
      4 C3          1.2020    0.1362    2.0507 C.ar      1 <0>        -0.2066
      5 C4          1.8368   -0.4902    3.1075 C.ar      1 <0>        -0.0836
      6 C5          1.8987   -1.8703    3.1618 C.ar      1 <0>        -0.1521
      7 C6          1.3263   -2.6311    2.1598 C.ar      1 <0>        -0.0880
      8 C7          0.6832   -2.0097    1.0992 C.ar      1 <0>         0.1389
      9 N1          0.0978   -2.7779    0.0862 N.pl3     1 <0>        -0.6680
     10 C8          0.8705   -3.1791   -1.0992 C.3       1 <0>         0.1535
     11 C9          0.7192   -4.6921   -1.2897 C.3       1 <0>         0.0416
     12 N2         -0.7081   -5.0367   -1.3328 N.3       1 <0>        -0.5346
     13 C10        -1.3720   -4.7173   -0.0619 C.3       1 <0>         0.0388
     14 C11        -1.3047   -3.2105    0.1818 C.3       1 <0>         0.1535
     15 C12        -0.8980   -6.4501   -1.6852 C.3       1 <0>         0.0596
     16 C13        -2.3795   -6.7116   -1.9641 C.3       1 <0>        -0.1400
     17 C14        -2.5773   -8.1837   -2.3312 C.3       1 <0>         0.1622
     18 C15        -4.0135   -8.4147   -2.7247 C.2       1 <0>        -0.1332
     19 C16        -4.9022   -8.8489   -1.8196 C.2       1 <0>        -0.1505
     20 S1         -6.4203   -8.9625   -2.7471 S.3       1 <0>         0.0338
     21 C17        -5.8188   -8.4231   -4.3266 C.ar      1 <0>        -0.1124
     22 C18        -4.4514   -8.1628   -4.0898 C.ar      1 <0>        -0.0823
     23 C19        -3.6936   -7.7028   -5.1924 C.ar      1 <0>        -0.0753
     24 C20        -4.2748   -7.5227   -6.4084 C.ar      1 <0>        -0.1198
     25 C21        -5.6232   -7.7814   -6.6139 C.ar      1 <0>        -0.0934
     26 C22        -6.3952   -8.2412   -5.5652 C.ar      1 <0>        -0.0780
     27 O2         -2.2541   -9.0028   -1.2057 O.3       1 <0>        -0.5512
     28 H1          1.0053    1.8021    0.0021 H         1 <0>         0.0538
     29 H2         -0.5445    1.7859   -0.8732 H         1 <0>         0.0991
     30 H3         -0.5275    1.7763    0.9067 H         1 <0>         0.0536
     31 H4          1.1555    1.2145    2.0114 H         1 <0>         0.1276
     32 H5          2.2858    0.1003    3.8925 H         1 <0>         0.1245
     33 H6          2.3959   -2.3551    3.9890 H         1 <0>         0.1239
     34 H7          1.3765   -3.7090    2.2044 H         1 <0>         0.1251
     35 H8          0.4889   -2.6595   -1.9781 H         1 <0>         0.0577
     36 H9          1.9218   -2.9319   -0.9519 H         1 <0>         0.0691
     37 H10         1.1938   -4.9902   -2.2246 H         1 <0>         0.0794
     38 H11         1.1942   -5.2127   -0.4581 H         1 <0>         0.0348
     39 H12        -2.4141   -5.0337   -0.1064 H         1 <0>         0.0801
     40 H13        -0.8680   -5.2375    0.7526 H         1 <0>         0.0341
     41 H14        -1.6908   -2.9840    1.1756 H         1 <0>         0.0682
     42 H15        -1.8994   -2.6939   -0.5716 H         1 <0>         0.0567
     43 H16        -0.3139   -6.6843   -2.5752 H         1 <0>         0.0742
     44 H17        -0.5676   -7.0784   -0.8581 H         1 <0>         0.0411
     45 H18        -2.9636   -6.4774   -1.0741 H         1 <0>         0.0687
     46 H19        -2.7099   -6.0833   -2.7912 H         1 <0>         0.0835
     47 H20        -1.9259   -8.4405   -3.1665 H         1 <0>         0.1089
     48 H21        -4.7375   -9.0763   -0.7768 H         1 <0>         0.1875
     49 H22        -2.6418   -7.4920   -5.0668 H         1 <0>         0.1253
     50 H23        -3.6737   -7.1698   -7.2333 H         1 <0>         0.1291
     51 H24        -6.0636   -7.6307   -7.5884 H         1 <0>         0.1356
     52 H25        -7.4455   -8.4456   -5.7117 H         1 <0>         0.1322
     53 H26        -2.7958   -8.8284   -0.4239 H         1 <0>         0.3725
@<TRIPOS>BOND
     1    1    2 1
     2    1   28 1
     3    1   29 1
     4    1   30 1
     5    2    3 1
     6    3    8 ar
     7    3    4 ar
     8    4    5 ar
     9    4   31 1
    10    5    6 ar
    11    5   32 1
    12    6    7 ar
    13    6   33 1
    14    7    8 ar
    15    7   34 1
    16    8    9 1
    17    9   14 1
    18    9   10 1
    19   10   11 1
    20   10   35 1
    21   10   36 1
    22   11   12 1
    23   11   37 1
    24   11   38 1
    25   12   13 1
    26   12   15 1
    27   13   14 1
    28   13   39 1
    29   13   40 1
    30   14   41 1
    31   14   42 1
    32   15   16 1
    33   15   43 1
    34   15   44 1
    35   16   17 1
    36   16   45 1
    37   16   46 1
    38   17   18 1
    39   17   27 1
    40   17   47 1
    41   18   22 1
    42   18   19 2
    43   19   20 1
    44   19   48 1
    45   20   21 1
    46   21   26 ar
    47   21   22 ar
    48   22   23 ar
    49   23   24 ar
    50   23   49 1
    51   24   25 ar
    52   24   50 1
    53   25   26 ar
    54   25   51 1
    55   26   52 1
    56   27   53 1
@<TRIPOS>MOLECULE
CHEMBL136936
   54    57     0     0     0
SMALL
USER_CHARGES

@<TRIPOS>ATOM
      1 C1         -0.0173    1.4248    0.0099 C.3       1 <0>         0.0228
      2 O1          0.0021   -0.0041    0.0020 O.3       1 <0>        -0.3112
      3 C2         -1.2013   -0.6380    0.0101 C.ar      1 <0>         0.1289
      4 C3         -2.3740    0.0989    0.0195 C.ar      1 <0>        -0.2022
      5 C4         -3.5967   -0.5469    0.0283 C.ar      1 <0>        -0.0670
      6 C5         -3.6532   -1.9283    0.0271 C.ar      1 <0>        -0.1489
      7 C6         -2.4875   -2.6710    0.0173 C.ar      1 <0>        -0.0821
      8 C7         -1.2572   -2.0300    0.0032 C.ar      1 <0>         0.1091
      9 N1         -0.0754   -2.7797   -0.0127 N.pl3     1 <0>        -0.6633
     10 C8          0.5725   -3.1969    1.2404 C.3       1 <0>         0.1220
     11 C9          0.8530   -4.7014    1.1647 C.3       1 <0>        -0.0221
     12 N2          1.6309   -4.9929   -0.0461 N.4       1 <0>        -0.3800
     13 C10         0.8351   -4.6789   -1.2395 C.3       1 <0>        -0.0281
     14 C11         0.5506   -3.1781   -1.2829 C.3       1 <0>         0.1227
     15 C12         1.9935   -6.4164   -0.0621 C.3       1 <0>        -0.0067
     16 C13         2.9078   -6.6964   -1.2565 C.3       1 <0>        -0.1789
     17 C14         3.2853   -8.1790   -1.2732 C.3       1 <0>         0.1738
     18 C15         4.0839   -8.4800   -2.5153 C.2       1 <0>        -0.1531
     19 C16         5.4240   -8.4756   -2.4764 C.2       1 <0>        -0.1426
     20 S1          5.8909   -8.8794   -4.1487 S.3       1 <0>         0.0630
     21 C17         4.2716   -9.0431   -4.8548 C.ar      1 <0>        -0.1147
     22 C18         3.4080   -8.7844   -3.7680 C.ar      1 <0>        -0.0879
     23 C19         2.0197   -8.8484   -4.0325 C.ar      1 <0>        -0.0862
     24 C20         1.5626   -9.1508   -5.2770 C.ar      1 <0>        -0.1145
     25 C21         2.4331   -9.4060   -6.3278 C.ar      1 <0>        -0.0891
     26 C22         3.7958   -9.3438   -6.1127 C.ar      1 <0>        -0.0713
     27 O2          4.0688   -8.4840   -0.1177 O.3       1 <0>        -0.5474
     28 H1          1.0053    1.8021    0.0021 H         1 <0>         0.1035
     29 H2         -0.5445    1.7859   -0.8732 H         1 <0>         0.0588
     30 H3         -0.5275    1.7763    0.9067 H         1 <0>         0.0589
     31 H4         -2.3335    1.1781    0.0204 H         1 <0>         0.1341
     32 H5         -4.5101    0.0293    0.0363 H         1 <0>         0.1319
     33 H6         -4.6104   -2.4284    0.0343 H         1 <0>         0.1306
     34 H7         -2.5344   -3.7500    0.0168 H         1 <0>         0.1265
     35 H8          1.5101   -2.6554    1.3659 H         1 <0>         0.0775
     36 H9         -0.0891   -2.9896    2.0815 H         1 <0>         0.1142
     37 H10         1.4191   -5.0102    2.0435 H         1 <0>         0.1365
     38 H11        -0.0906   -5.2458    1.1302 H         1 <0>         0.1299
     39 H12         1.3880   -4.9711   -2.1323 H         1 <0>         0.1355
     40 H13        -0.1080   -5.2240   -1.2012 H         1 <0>         0.1304
     41 H14        -0.1254   -2.9583   -2.1092 H         1 <0>         0.1135
     42 H15         1.4860   -2.6346   -1.4165 H         1 <0>         0.0766
     43 H16         2.5145   -6.6690    0.8613 H         1 <0>         0.1384
     44 H17         1.0901   -7.0204   -0.1466 H         1 <0>         0.1298
     45 H18         2.3868   -6.4437   -2.1800 H         1 <0>         0.0994
     46 H19         3.8111   -6.0923   -1.1721 H         1 <0>         0.0935
     47 H20         2.3792   -8.7848   -1.2681 H         1 <0>         0.1176
     48 H21         6.0676   -8.2747   -1.6327 H         1 <0>         0.1901
     49 H22         1.3151   -8.6553   -3.2372 H         1 <0>         0.1196
     50 H23         0.4977   -9.1939   -5.4518 H         1 <0>         0.1309
     51 H24         2.0474   -9.6445   -7.3080 H         1 <0>         0.1399
     52 H25         4.4837   -9.5408   -6.9217 H         1 <0>         0.1366
     53 H26         4.8921   -7.9806   -0.0566 H         1 <0>         0.3794
     54 H27         2.4712   -4.4343   -0.0471 H         1 <0>         0.4215
@<TRIPOS>BOND
     1    1    2 1
     2    1   28 1
     3    1   29 1
     4    1   30 1
     5    2    3 1
     6    3    8 ar
     7    3    4 ar
     8    4    5 ar
     9    4   31 1
    10    5    6 ar
    11    5   32 1
    12    6    7 ar
    13    6   33 1
    14    7    8 ar
    15    7   34 1
    16    8    9 1
    17    9   14 1
    18    9   10 1
    19   10   11 1
    20   10   35 1
    21   10   36 1
    22   11   12 1
    23   11   37 1
    24   11   38 1
    25   12   13 1
    26   12   15 1
    27   12   54 1
    28   13   14 1
    29   13   39 1
    30   13   40 1
    31   14   41 1
    32   14   42 1
    33   15   16 1
    34   15   43 1
    35   15   44 1
    36   16   17 1
    37   16   45 1
    38   16   46 1
    39   17   18 1
    40   17   27 1
    41   17   47 1
    42   18   22 1
    43   18   19 2
    44   19   20 1
    45   19   48 1
    46   20   21 1
    47   21   26 ar
    48   21   22 ar
    49   22   23 ar
    50   23   24 ar
    51   23   49 1
    52   24   25 ar
    53   24   50 1
    54   25   26 ar
    55   25   51 1
    56   26   52 1
    57   27   53 1
@<TRIPOS>MOLECULE
CHEMBL136936
   53    56     0     0     0
SMALL
USER_CHARGES

@<TRIPOS>ATOM
      1 C1         -0.0173    1.4248    0.0099 C.3       1 <0>         0.0251
      2 O1          0.0021   -0.0041    0.0020 O.3       1 <0>        -0.3040
      3 C2          0.6263   -0.6189    1.0423 C.ar      1 <0>         0.1196
      4 C3          1.2020    0.1362    2.0507 C.ar      1 <0>        -0.2065
      5 C4          1.8368   -0.4902    3.1075 C.ar      1 <0>        -0.0836
      6 C5          1.8987   -1.8703    3.1618 C.ar      1 <0>        -0.1521
      7 C6          1.3263   -2.6311    2.1598 C.ar      1 <0>        -0.0881
      8 C7          0.6832   -2.0097    1.0992 C.ar      1 <0>         0.1390
      9 N1          0.0978   -2.7779    0.0862 N.pl3     1 <0>        -0.6681
     10 C8          0.8705   -3.1791   -1.0992 C.3       1 <0>         0.1535
     11 C9          0.7192   -4.6921   -1.2897 C.3       1 <0>         0.0418
     12 N2         -0.7081   -5.0367   -1.3328 N.3       1 <0>        -0.5342
     13 C10        -1.3720   -4.7173   -0.0619 C.3       1 <0>         0.0379
     14 C11        -1.3047   -3.2105    0.1818 C.3       1 <0>         0.1537
     15 C12        -0.8980   -6.4501   -1.6852 C.3       1 <0>         0.0601
     16 C13        -2.3795   -6.7116   -1.9641 C.3       1 <0>        -0.1403
     17 C14        -2.5773   -8.1837   -2.3312 C.3       1 <0>         0.1633
     18 C15        -4.0488   -8.4695   -2.4858 C.2       1 <0>        -0.1355
     19 C16        -4.6229   -8.4293   -3.6967 C.2       1 <0>        -0.1473
     20 S1         -6.3279   -8.8288   -3.3633 S.3       1 <0>         0.0350
     21 C17        -6.2225   -9.0389   -1.6048 C.ar      1 <0>        -0.1129
     22 C18        -4.8601   -8.7979   -1.3228 C.ar      1 <0>        -0.0817
     23 C19        -4.4657   -8.9001    0.0320 C.ar      1 <0>        -0.0774
     24 C20        -5.3690   -9.2207    0.9965 C.ar      1 <0>        -0.1197
     25 C21        -6.7025   -9.4578    0.6921 C.ar      1 <0>        -0.0940
     26 C22        -7.1294   -9.3583   -0.6175 C.ar      1 <0>        -0.0769
     27 O2         -1.9061   -8.4621   -3.5616 O.3       1 <0>        -0.5509
     28 H1          1.0053    1.8021    0.0021 H         1 <0>         0.0538
     29 H2         -0.5445    1.7859   -0.8732 H         1 <0>         0.0991
     30 H3         -0.5275    1.7763    0.9067 H         1 <0>         0.0536
     31 H4          1.1555    1.2145    2.0114 H         1 <0>         0.1276
     32 H5          2.2858    0.1003    3.8925 H         1 <0>         0.1245
     33 H6          2.3959   -2.3551    3.9890 H         1 <0>         0.1238
     34 H7          1.3765   -3.7090    2.2044 H         1 <0>         0.1250
     35 H8          0.4889   -2.6595   -1.9781 H         1 <0>         0.0578
     36 H9          1.9218   -2.9319   -0.9519 H         1 <0>         0.0692
     37 H10         1.1938   -4.9902   -2.2246 H         1 <0>         0.0801
     38 H11         1.1942   -5.2127   -0.4581 H         1 <0>         0.0343
     39 H12        -2.4141   -5.0337   -0.1064 H         1 <0>         0.0807
     40 H13        -0.8680   -5.2375    0.7526 H         1 <0>         0.0336
     41 H14        -1.6908   -2.9840    1.1756 H         1 <0>         0.0682
     42 H15        -1.8994   -2.6939   -0.5716 H         1 <0>         0.0568
     43 H16        -0.3139   -6.6843   -2.5752 H         1 <0>         0.0824
     44 H17        -0.5676   -7.0784   -0.8581 H         1 <0>         0.0319
     45 H18        -2.9636   -6.4774   -1.0741 H         1 <0>         0.0743
     46 H19        -2.7099   -6.0833   -2.7912 H         1 <0>         0.0780
     47 H20        -2.1658   -8.8133   -1.5423 H         1 <0>         0.1063
     48 H21        -4.1621   -8.2071   -4.6479 H         1 <0>         0.1889
     49 H22        -3.4356   -8.7219    0.3032 H         1 <0>         0.1231
     50 H23        -5.0413   -9.2929    2.0231 H         1 <0>         0.1285
     51 H24        -7.4023   -9.7113    1.4746 H         1 <0>         0.1356
     52 H25        -8.1640   -9.5410   -0.8677 H         1 <0>         0.1325
     53 H26        -2.2218   -7.9366   -4.3095 H         1 <0>         0.3745
@<TRIPOS>BOND
     1    1    2 1
     2    1   28 1
     3    1   29 1
     4    1   30 1
     5    2    3 1
     6    3    8 ar
     7    3    4 ar
     8    4    5 ar
     9    4   31 1
    10    5    6 ar
    11    5   32 1
    12    6    7 ar
    13    6   33 1
    14    7    8 ar
    15    7   34 1
    16    8    9 1
    17    9   14 1
    18    9   10 1
    19   10   11 1
    20   10   35 1
    21   10   36 1
    22   11   12 1
    23   11   37 1
    24   11   38 1
    25   12   13 1
    26   12   15 1
    27   13   14 1
    28   13   39 1
    29   13   40 1
    30   14   41 1
    31   14   42 1
    32   15   16 1
    33   15   43 1
    34   15   44 1
    35   16   17 1
    36   16   45 1
    37   16   46 1
    38   17   18 1
    39   17   27 1
    40   17   47 1
    41   18   22 1
    42   18   19 2
    43   19   20 1
    44   19   48 1
    45   20   21 1
    46   21   26 ar
    47   21   22 ar
    48   22   23 ar
    49   23   24 ar
    50   23   49 1
    51   24   25 ar
    52   24   50 1
    53   25   26 ar
    54   25   51 1
    55   26   52 1
    56   27   53 1
@<TRIPOS>MOLECULE
CHEMBL244687
   63    66     0     0     0
SMALL
USER_CHARGES

@<TRIPOS>ATOM
      1 C1         -0.0811    1.5495   -0.2771 C.3       1 <0>        -0.1845
      2 C2         -0.0358    0.0202   -0.2889 C.3       1 <0>         0.0286
      3 C3         -1.4297   -0.5336    0.0129 C.3       1 <0>        -0.0987
      4 C4         -1.4133   -2.0347   -0.1192 C.ar      1 <0>        -0.1362
      5 C5         -1.6903   -2.6232   -1.3394 C.ar      1 <0>        -0.0667
      6 C6         -1.6764   -3.9989   -1.4631 C.ar      1 <0>        -0.1777
      7 C7         -1.3836   -4.7904   -0.3617 C.ar      1 <0>         0.0891
      8 C8         -1.1056   -4.1974    0.8615 C.ar      1 <0>        -0.0957
      9 C9         -1.1158   -2.8210    0.9786 C.ar      1 <0>        -0.1070
     10 O1         -1.3697   -6.1440   -0.4807 O.3       1 <0>        -0.1742
     11 C10        -1.5093   -6.6760   -1.7212 C.2       1 <0>         0.3572
     12 C11        -1.6217   -8.0537   -2.0125 C.2       1 <0>        -0.4946
     13 N1         -1.7414   -8.2138   -3.2976 N.pl3     1 <0>         0.0735
     14 O2         -1.8783   -9.4481   -3.9781 O.3       1 <0>        -0.2698
     15 O3         -1.7103   -6.9269   -3.8934 O.3       1 <0>         0.0749
     16 N2         -1.5664   -5.9954   -2.8332 N.2       1 <0>        -0.2907
     17 S1         -1.6028   -9.3518   -0.8213 S.o2      1 <0>         2.5850
     18 O4         -2.0152   -8.7778    0.4115 O.2       1 <0>        -0.8824
     19 O5         -2.2772  -10.4546   -1.4116 O.2       1 <0>        -0.8681
     20 C12         0.0766   -9.8421   -0.6117 C.ar      1 <0>        -0.6619
     21 C13         0.6110  -10.8365   -1.4095 C.ar      1 <0>        -0.0113
     22 C14         1.9285  -11.2212   -1.2451 C.ar      1 <0>        -0.1340
     23 C15         2.7117  -10.6112   -0.2831 C.ar      1 <0>        -0.0495
     24 C16         2.1776   -9.6162    0.5141 C.ar      1 <0>        -0.1390
     25 C17         0.8613   -9.2286    0.3468 C.ar      1 <0>        -0.0206
     26 N3          0.9095   -0.4496    0.7328 N.4       1 <0>        -0.5071
     27 C18         2.2681   -0.0178    0.3783 C.3       1 <0>        -0.0473
     28 C19         3.2527   -0.5071    1.4423 C.3       1 <0>         0.1364
     29 C20         4.6257    0.0384    1.1451 C.ar      1 <0>        -0.1066
     30 C21         5.4129   -0.5625    0.1815 C.ar      1 <0>        -0.1475
     31 C22         6.6775   -0.0621   -0.0941 C.ar      1 <0>         0.1388
     32 C23         7.1510    1.0417    0.5983 C.ar      1 <0>        -0.1577
     33 C24         6.3593    1.6429    1.5646 C.ar      1 <0>         0.1387
     34 C25         5.0931    1.1421    1.8325 C.ar      1 <0>        -0.1400
     35 O6          6.8208    2.7248    2.2453 O.3       1 <0>        -0.4908
     36 O7          7.4515   -0.6538   -1.0415 O.3       1 <0>        -0.4912
     37 O8          3.2950   -1.9354    1.4314 O.3       1 <0>        -0.5441
     38 H1          0.9120    1.9440   -0.4921 H         1 <0>         0.0834
     39 H2         -0.7825    1.8980   -1.0352 H         1 <0>         0.1097
     40 H3         -0.4050    1.8959    0.7043 H         1 <0>         0.0860
     41 H4          0.2881   -0.3262   -1.2703 H         1 <0>         0.1410
     42 H5         -1.7168   -0.2614    1.0286 H         1 <0>         0.1037
     43 H6         -2.1476   -0.1146   -0.6922 H         1 <0>         0.1258
     44 H7         -1.9181   -2.0067   -2.1964 H         1 <0>         0.1433
     45 H8         -1.8935   -4.4581   -2.4162 H         1 <0>         0.1835
     46 H9         -0.8778   -4.8112    1.7204 H         1 <0>         0.1559
     47 H10        -0.8951   -2.3587    1.9294 H         1 <0>         0.1415
     48 H11        -0.0009  -11.3130   -2.1611 H         1 <0>         0.1522
     49 H12         2.3459  -11.9985   -1.8680 H         1 <0>         0.1426
     50 H13         3.7409  -10.9122   -0.1542 H         1 <0>         0.1386
     51 H14         2.7894   -9.1399    1.2659 H         1 <0>         0.1391
     52 H15         0.4450   -8.4487    0.9671 H         1 <0>         0.1452
     53 H16         0.6564   -0.0614    1.6291 H         1 <0>         0.4268
     54 H17         2.5416   -0.4371   -0.5900 H         1 <0>         0.1372
     55 H18         2.3014    1.0704    0.3254 H         1 <0>         0.1486
     56 H19         2.9287   -0.1607    2.4237 H         1 <0>         0.1346
     57 H20         5.0437   -1.4226   -0.3574 H         1 <0>         0.1315
     58 H21         8.1351    1.4324    0.3855 H         1 <0>         0.1452
     59 H22         4.4742    1.6128    2.5821 H         1 <0>         0.1383
     60 H23         6.6098    3.5713    1.8281 H         1 <0>         0.4006
     61 H24         7.3307   -0.2922   -1.9302 H         1 <0>         0.4000
     62 H25         3.5758   -2.3141    0.5871 H         1 <0>         0.3890
     63 H26         0.8787   -1.4569    0.7817 H         1 <0>         0.4293
@<TRIPOS>BOND
     1    1    2 1
     2    1   38 1
     3    1   39 1
     4    1   40 1
     5    2    3 1
     6    2   26 1
     7    2   41 1
     8    3    4 1
     9    3   42 1
    10    3   43 1
    11    4    9 ar
    12    4    5 ar
    13    5    6 ar
    14    5   44 1
    15    6    7 ar
    16    6   45 1
    17    7    8 ar
    18    7   10 1
    19    8    9 ar
    20    8   46 1
    21    9   47 1
    22   10   11 1
    23   11   16 2
    24   11   12 1
    25   12   13 2
    26   12   17 1
    27   13   14 1
    28   13   15 1
    29   15   16 1
    30   17   18 2
    31   17   19 2
    32   17   20 1
    33   20   25 ar
    34   20   21 ar
    35   21   22 ar
    36   21   48 1
    37   22   23 ar
    38   22   49 1
    39   23   24 ar
    40   23   50 1
    41   24   25 ar
    42   24   51 1
    43   25   52 1
    44   26   27 1
    45   26   53 1
    46   26   63 1
    47   27   28 1
    48   27   54 1
    49   27   55 1
    50   28   29 1
    51   28   37 1
    52   28   56 1
    53   29   34 ar
    54   29   30 ar
    55   30   31 ar
    56   30   57 1
    57   31   32 ar
    58   31   36 1
    59   32   33 ar
    60   32   58 1
    61   33   34 ar
    62   33   35 1
    63   34   59 1
    64   35   60 1
    65   36   61 1
    66   37   62 1
@<TRIPOS>MOLECULE
CHEMBL244687
   63    66     0     0     0
SMALL
USER_CHARGES

@<TRIPOS>ATOM
      1 C1         -0.0811    1.5495   -0.2771 C.3       1 <0>        -0.1847
      2 C2         -0.0358    0.0202   -0.2889 C.3       1 <0>         0.0284
      3 C3         -1.4297   -0.5336    0.0129 C.3       1 <0>        -0.0986
      4 C4         -1.4133   -2.0347   -0.1192 C.ar      1 <0>        -0.1349
      5 C5         -1.6903   -2.6232   -1.3394 C.ar      1 <0>        -0.0659
      6 C6         -1.6764   -3.9989   -1.4631 C.ar      1 <0>        -0.1771
      7 C7         -1.3836   -4.7904   -0.3617 C.ar      1 <0>         0.0887
      8 C8         -1.1056   -4.1974    0.8615 C.ar      1 <0>        -0.0976
      9 C9         -1.1158   -2.8210    0.9786 C.ar      1 <0>        -0.1095
     10 O1         -1.3697   -6.1440   -0.4807 O.3       1 <0>        -0.1745
     11 C10        -1.5093   -6.6760   -1.7212 C.2       1 <0>         0.3568
     12 C11        -1.6217   -8.0537   -2.0125 C.2       1 <0>        -0.4949
     13 N1         -1.7414   -8.2138   -3.2976 N.pl3     1 <0>         0.0735
     14 O2         -1.8783   -9.4481   -3.9781 O.3       1 <0>        -0.2696
     15 O3         -1.7103   -6.9269   -3.8934 O.3       1 <0>         0.0755
     16 N2         -1.5664   -5.9954   -2.8332 N.2       1 <0>        -0.2901
     17 S1         -1.6028   -9.3518   -0.8213 S.o2      1 <0>         2.5852
     18 O4         -2.0152   -8.7778    0.4115 O.2       1 <0>        -0.8825
     19 O5         -2.2772  -10.4546   -1.4116 O.2       1 <0>        -0.8679
     20 C12         0.0766   -9.8421   -0.6117 C.ar      1 <0>        -0.6617
     21 C13         0.6110  -10.8365   -1.4095 C.ar      1 <0>        -0.0110
     22 C14         1.9285  -11.2212   -1.2451 C.ar      1 <0>        -0.1338
     23 C15         2.7117  -10.6112   -0.2831 C.ar      1 <0>        -0.0497
     24 C16         2.1776   -9.6162    0.5141 C.ar      1 <0>        -0.1394
     25 C17         0.8613   -9.2286    0.3468 C.ar      1 <0>        -0.0208
     26 N3          0.9095   -0.4496    0.7328 N.4       1 <0>        -0.5057
     27 C18         2.2681   -0.0178    0.3783 C.3       1 <0>        -0.0484
     28 C19         3.2527   -0.5071    1.4423 C.3       1 <0>         0.1373
     29 C20         4.6465   -0.0642    1.0787 C.ar      1 <0>        -0.1067
     30 C21         5.0883    1.1929    1.4447 C.ar      1 <0>        -0.1460
     31 C22         6.3713    1.6031    1.1110 C.ar      1 <0>         0.1393
     32 C23         7.2100    0.7505    0.4098 C.ar      1 <0>        -0.1575
     33 C24         6.7644   -0.5102    0.0437 C.ar      1 <0>         0.1381
     34 C25         5.4824   -0.9179    0.3847 C.ar      1 <0>        -0.1416
     35 O6          7.5840   -1.3480   -0.6441 O.3       1 <0>        -0.4932
     36 O7          6.8051    2.8396    1.4709 O.3       1 <0>        -0.4934
     37 O8          2.8942    0.0426    2.7117 O.3       1 <0>        -0.5456
     38 H1          0.9120    1.9440   -0.4921 H         1 <0>         0.0835
     39 H2         -0.7825    1.8980   -1.0352 H         1 <0>         0.1100
     40 H3         -0.4050    1.8959    0.7043 H         1 <0>         0.0857
     41 H4          0.2881   -0.3262   -1.2703 H         1 <0>         0.1419
     42 H5         -1.7168   -0.2614    1.0286 H         1 <0>         0.1038
     43 H6         -2.1476   -0.1146   -0.6922 H         1 <0>         0.1259
     44 H7         -1.9181   -2.0067   -2.1964 H         1 <0>         0.1439
     45 H8         -1.8935   -4.4581   -2.4162 H         1 <0>         0.1837
     46 H9         -0.8778   -4.8112    1.7204 H         1 <0>         0.1558
     47 H10        -0.8951   -2.3587    1.9294 H         1 <0>         0.1423
     48 H11        -0.0009  -11.3130   -2.1611 H         1 <0>         0.1524
     49 H12         2.3459  -11.9985   -1.8680 H         1 <0>         0.1428
     50 H13         3.7409  -10.9122   -0.1542 H         1 <0>         0.1385
     51 H14         2.7894   -9.1399    1.2659 H         1 <0>         0.1386
     52 H15         0.4450   -8.4487    0.9671 H         1 <0>         0.1450
     53 H16         0.6564   -0.0614    1.6291 H         1 <0>         0.4295
     54 H17         2.5416   -0.4371   -0.5900 H         1 <0>         0.1457
     55 H18         2.3014    1.0704    0.3254 H         1 <0>         0.1420
     56 H19         3.2194   -1.5953    1.4952 H         1 <0>         0.1339
     57 H20         4.4344    1.8568    1.9906 H         1 <0>         0.1329
     58 H21         8.2087    1.0680    0.1489 H         1 <0>         0.1450
     59 H22         5.1363   -1.9015    0.1036 H         1 <0>         0.1368
     60 H23         8.1247   -1.9190   -0.0813 H         1 <0>         0.4025
     61 H24         7.2338    2.8694    2.3371 H         1 <0>         0.4029
     62 H25         2.9024    1.0092    2.7382 H         1 <0>         0.3895
     63 H26         0.8787   -1.4569    0.7817 H         1 <0>         0.4252
@<TRIPOS>BOND
     1    1    2 1
     2    1   38 1
     3    1   39 1
     4    1   40 1
     5    2    3 1
     6    2   26 1
     7    2   41 1
     8    3    4 1
     9    3   42 1
    10    3   43 1
    11    4    9 ar
    12    4    5 ar
    13    5    6 ar
    14    5   44 1
    15    6    7 ar
    16    6   45 1
    17    7    8 ar
    18    7   10 1
    19    8    9 ar
    20    8   46 1
    21    9   47 1
    22   10   11 1
    23   11   16 2
    24   11   12 1
    25   12   13 2
    26   12   17 1
    27   13   14 1
    28   13   15 1
    29   15   16 1
    30   17   18 2
    31   17   19 2
    32   17   20 1
    33   20   25 ar
    34   20   21 ar
    35   21   22 ar
    36   21   48 1
    37   22   23 ar
    38   22   49 1
    39   23   24 ar
    40   23   50 1
    41   24   25 ar
    42   24   51 1
    43   25   52 1
    44   26   27 1
    45   26   53 1
    46   26   63 1
    47   27   28 1
    48   27   54 1
    49   27   55 1
    50   28   29 1
    51   28   37 1
    52   28   56 1
    53   29   34 ar
    54   29   30 ar
    55   30   31 ar
    56   30   57 1
    57   31   32 ar
    58   31   36 1
    59   32   33 ar
    60   32   58 1
    61   33   34 ar
    62   33   35 1
    63   34   59 1
    64   35   60 1
    65   36   61 1
    66   37   62 1
@<TRIPOS>MOLECULE
CHEMBL244687
   63    66     0     0     0
SMALL
USER_CHARGES

@<TRIPOS>ATOM
      1 C1         -0.2767    1.4963    0.1525 C.3       1 <0>        -0.1843
      2 C2         -0.2407   -0.0333    0.1659 C.3       1 <0>         0.0287
      3 C3          0.7405   -0.5109    1.2383 C.3       1 <0>        -0.0992
      4 C4          0.8688   -2.0108    1.1696 C.ar      1 <0>        -0.1344
      5 C5          0.0191   -2.8109    1.9112 C.ar      1 <0>        -0.1049
      6 C6          0.1349   -4.1860    1.8503 C.ar      1 <0>        -0.1783
      7 C7          1.1046   -4.7644    1.0438 C.ar      1 <0>         0.0888
      8 C8          1.9556   -3.9593    0.3003 C.ar      1 <0>        -0.0962
      9 C9          1.8322   -2.5848    0.3607 C.ar      1 <0>        -0.0713
     10 O1          1.2208   -6.1170    0.9825 O.3       1 <0>        -0.1735
     11 C10         0.2824   -6.8663    1.6143 C.2       1 <0>         0.3587
     12 C11         0.3078   -8.2731    1.7403 C.2       1 <0>        -0.4948
     13 N1         -0.7411   -8.6653    2.4018 N.pl3     1 <0>         0.0738
     14 O2         -1.0708  -10.0022    2.7319 O.3       1 <0>        -0.2689
     15 O3         -1.4943   -7.5098    2.7329 O.3       1 <0>         0.0741
     16 N2         -0.7832   -6.4008    2.2065 N.2       1 <0>        -0.2939
     17 S1          1.5637   -9.3308    1.1011 S.o2      1 <0>         2.5845
     18 O4          2.7350   -8.5370    0.9696 O.2       1 <0>        -0.8819
     19 O5          1.5314  -10.5175    1.8821 O.2       1 <0>        -0.8679
     20 C12         1.0794   -9.7880   -0.5301 C.ar      1 <0>        -0.6620
     21 C13         0.3062  -10.9162   -0.7309 C.ar      1 <0>        -0.0114
     22 C14        -0.0738  -11.2750   -2.0106 C.ar      1 <0>        -0.1340
     23 C15         0.3191  -10.5053   -3.0896 C.ar      1 <0>        -0.0494
     24 C16         1.0915   -9.3766   -2.8888 C.ar      1 <0>        -0.1390
     25 C17         1.4679   -9.0155   -1.6086 C.ar      1 <0>        -0.0207
     26 N3         -1.5823   -0.5521    0.4638 N.4       1 <0>        -0.5077
     27 C18        -2.4989   -0.1945   -0.6271 C.3       1 <0>        -0.0466
     28 C19        -3.8963   -0.7349   -0.3169 C.3       1 <0>         0.1359
     29 C20        -4.8068   -0.4758   -1.4895 C.ar      1 <0>        -0.1063
     30 C21        -5.3621    0.7768   -1.6680 C.ar      1 <0>        -0.1467
     31 C22        -6.2008    1.0178   -2.7469 C.ar      1 <0>         0.1392
     32 C23        -6.4814    0.0006   -3.6461 C.ar      1 <0>        -0.1576
     33 C24        -5.9230   -1.2553   -3.4649 C.ar      1 <0>         0.1385
     34 C25        -5.0804   -1.4898   -2.3875 C.ar      1 <0>        -0.1407
     35 O6         -6.1965   -2.2545   -4.3444 O.3       1 <0>        -0.4908
     36 O7         -6.7471    2.2499   -2.9217 O.3       1 <0>        -0.4907
     37 O8         -4.4141   -0.0790    0.8423 O.3       1 <0>        -0.5435
     38 H1          0.7188    1.8812   -0.0685 H         1 <0>         0.1102
     39 H2         -0.9757    1.8365   -0.6115 H         1 <0>         0.0828
     40 H3         -0.5989    1.8607    1.1279 H         1 <0>         0.0856
     41 H4          0.0815   -0.3977   -0.8095 H         1 <0>         0.1424
     42 H5          1.7156   -0.0546    1.0677 H         1 <0>         0.1272
     43 H6          0.3716   -0.2225    2.2226 H         1 <0>         0.1028
     44 H7         -0.7354   -2.3602    2.5388 H         1 <0>         0.1363
     45 H8         -0.5285   -4.8105    2.4303 H         1 <0>         0.1840
     46 H9          2.7114   -4.4070   -0.3280 H         1 <0>         0.1561
     47 H10         2.4915   -1.9578   -0.2212 H         1 <0>         0.1498
     48 H11        -0.0008  -11.5175    0.1121 H         1 <0>         0.1522
     49 H12        -0.6773  -12.1568   -2.1675 H         1 <0>         0.1427
     50 H13         0.0228  -10.7860   -4.0895 H         1 <0>         0.1387
     51 H14         1.3987   -8.7755   -3.7318 H         1 <0>         0.1392
     52 H15         2.0683   -8.1316   -1.4513 H         1 <0>         0.1454
     53 H16        -1.5423   -1.5563    0.5539 H         1 <0>         0.4252
     54 H17        -2.5422    0.8903   -0.7244 H         1 <0>         0.1416
     55 H18        -2.1402   -0.6290   -1.5602 H         1 <0>         0.1450
     56 H19        -3.8383   -1.8075   -0.1320 H         1 <0>         0.1320
     57 H20        -5.1435    1.5687   -0.9670 H         1 <0>         0.1328
     58 H21        -7.1342    0.1862   -4.4863 H         1 <0>         0.1454
     59 H22        -4.6416   -2.4667   -2.2483 H         1 <0>         0.1368
     60 H23        -5.5794   -2.3046   -5.0872 H         1 <0>         0.4001
     61 H24        -6.2087    2.8460   -3.4601 H         1 <0>         0.4000
     62 H25        -4.4934    0.8802    0.7490 H         1 <0>         0.3897
     63 H26        -1.9144   -0.1499    1.3275 H         1 <0>         0.4303
@<TRIPOS>BOND
     1    1    2 1
     2    1   38 1
     3    1   39 1
     4    1   40 1
     5    2    3 1
     6    2   26 1
     7    2   41 1
     8    3    4 1
     9    3   42 1
    10    3   43 1
    11    4    9 ar
    12    4    5 ar
    13    5    6 ar
    14    5   44 1
    15    6    7 ar
    16    6   45 1
    17    7    8 ar
    18    7   10 1
    19    8    9 ar
    20    8   46 1
    21    9   47 1
    22   10   11 1
    23   11   16 2
    24   11   12 1
    25   12   13 2
    26   12   17 1
    27   13   14 1
    28   13   15 1
    29   15   16 1
    30   17   18 2
    31   17   19 2
    32   17   20 1
    33   20   25 ar
    34   20   21 ar
    35   21   22 ar
    36   21   48 1
    37   22   23 ar
    38   22   49 1
    39   23   24 ar
    40   23   50 1
    41   24   25 ar
    42   24   51 1
    43   25   52 1
    44   26   27 1
    45   26   53 1
    46   26   63 1
    47   27   28 1
    48   27   54 1
    49   27   55 1
    50   28   29 1
    51   28   37 1
    52   28   56 1
    53   29   34 ar
    54   29   30 ar
    55   30   31 ar
    56   30   57 1
    57   31   32 ar
    58   31   36 1
    59   32   33 ar
    60   32   58 1
    61   33   34 ar
    62   33   35 1
    63   34   59 1
    64   35   60 1
    65   36   61 1
    66   37   62 1
@<TRIPOS>MOLECULE
CHEMBL244687
   63    66     0     0     0
SMALL
USER_CHARGES

@<TRIPOS>ATOM
      1 C1         -0.2767    1.4963    0.1525 C.3       1 <0>        -0.1849
      2 C2         -0.2407   -0.0333    0.1659 C.3       1 <0>         0.0285
      3 C3          0.7405   -0.5109    1.2383 C.3       1 <0>        -0.0989
      4 C4          0.8688   -2.0108    1.1696 C.ar      1 <0>        -0.1350
      5 C5          0.0191   -2.8109    1.9112 C.ar      1 <0>        -0.1024
      6 C6          0.1349   -4.1860    1.8503 C.ar      1 <0>        -0.1769
      7 C7          1.1046   -4.7644    1.0438 C.ar      1 <0>         0.0884
      8 C8          1.9556   -3.9593    0.3003 C.ar      1 <0>        -0.0966
      9 C9          1.8322   -2.5848    0.3607 C.ar      1 <0>        -0.0716
     10 O1          1.2208   -6.1170    0.9825 O.3       1 <0>        -0.1737
     11 C10         0.2824   -6.8663    1.6143 C.2       1 <0>         0.3581
     12 C11         0.3078   -8.2731    1.7403 C.2       1 <0>        -0.4945
     13 N1         -0.7411   -8.6653    2.4018 N.pl3     1 <0>         0.0737
     14 O2         -1.0708  -10.0022    2.7319 O.3       1 <0>        -0.2701
     15 O3         -1.4943   -7.5098    2.7329 O.3       1 <0>         0.0738
     16 N2         -0.7832   -6.4008    2.2065 N.2       1 <0>        -0.2922
     17 S1          1.5637   -9.3308    1.1011 S.o2      1 <0>         2.5844
     18 O4          2.7350   -8.5370    0.9696 O.2       1 <0>        -0.8818
     19 O5          1.5314  -10.5175    1.8821 O.2       1 <0>        -0.8681
     20 C12         1.0794   -9.7880   -0.5301 C.ar      1 <0>        -0.6619
     21 C13         0.3062  -10.9162   -0.7309 C.ar      1 <0>        -0.0115
     22 C14        -0.0738  -11.2750   -2.0106 C.ar      1 <0>        -0.1342
     23 C15         0.3191  -10.5053   -3.0896 C.ar      1 <0>        -0.0495
     24 C16         1.0915   -9.3766   -2.8888 C.ar      1 <0>        -0.1389
     25 C17         1.4679   -9.0155   -1.6086 C.ar      1 <0>        -0.0205
     26 N3         -1.5823   -0.5521    0.4638 N.4       1 <0>        -0.5070
     27 C18        -2.4989   -0.1945   -0.6271 C.3       1 <0>        -0.0479
     28 C19        -3.8963   -0.7349   -0.3169 C.3       1 <0>         0.1360
     29 C20        -4.8366   -0.3681   -1.4360 C.ar      1 <0>        -0.1062
     30 C21        -4.9236   -1.1732   -2.5555 C.ar      1 <0>        -0.1466
     31 C22        -5.7887   -0.8376   -3.5874 C.ar      1 <0>         0.1389
     32 C23        -6.5660    0.3066   -3.4943 C.ar      1 <0>        -0.1575
     33 C24        -6.4769    1.1128   -2.3699 C.ar      1 <0>         0.1386
     34 C25        -5.6144    0.7698   -1.3383 C.ar      1 <0>        -0.1410
     35 O6         -7.2372    2.2352   -2.2759 O.3       1 <0>        -0.4930
     36 O7         -5.8736   -1.6296   -4.6885 O.3       1 <0>        -0.4936
     37 O8         -3.8395   -2.1571   -0.1893 O.3       1 <0>        -0.5455
     38 H1          0.7188    1.8812   -0.0685 H         1 <0>         0.1103
     39 H2         -0.9757    1.8365   -0.6115 H         1 <0>         0.0842
     40 H3         -0.5989    1.8607    1.1279 H         1 <0>         0.0855
     41 H4          0.0815   -0.3977   -0.8095 H         1 <0>         0.1420
     42 H5          1.7156   -0.0546    1.0677 H         1 <0>         0.1271
     43 H6          0.3716   -0.2225    2.2226 H         1 <0>         0.1024
     44 H7         -0.7354   -2.3602    2.5388 H         1 <0>         0.1356
     45 H8         -0.5285   -4.8105    2.4303 H         1 <0>         0.1839
     46 H9          2.7114   -4.4070   -0.3280 H         1 <0>         0.1558
     47 H10         2.4915   -1.9578   -0.2212 H         1 <0>         0.1496
     48 H11        -0.0008  -11.5175    0.1121 H         1 <0>         0.1521
     49 H12        -0.6773  -12.1568   -2.1675 H         1 <0>         0.1426
     50 H13         0.0228  -10.7860   -4.0895 H         1 <0>         0.1386
     51 H14         1.3987   -8.7755   -3.7318 H         1 <0>         0.1393
     52 H15         2.0683   -8.1316   -1.4513 H         1 <0>         0.1455
     53 H16        -1.5423   -1.5563    0.5539 H         1 <0>         0.4282
     54 H17        -2.5422    0.8903   -0.7244 H         1 <0>         0.1498
     55 H18        -2.1402   -0.6290   -1.5602 H         1 <0>         0.1381
     56 H19        -4.2550   -0.3004    0.6162 H         1 <0>         0.1357
     57 H20        -4.3177   -2.0643   -2.6278 H         1 <0>         0.1314
     58 H21        -7.2396    0.5697   -4.2964 H         1 <0>         0.1451
     59 H22        -5.5478    1.3951   -0.4603 H         1 <0>         0.1380
     60 H23        -8.0997    2.0926   -1.8626 H         1 <0>         0.4029
     61 H24        -6.5403   -2.3268   -4.6210 H         1 <0>         0.4026
     62 H25        -3.5280   -2.6112   -0.9842 H         1 <0>         0.3881
     63 H26        -1.9144   -0.1499    1.3275 H         1 <0>         0.4265
@<TRIPOS>BOND
     1    1    2 1
     2    1   38 1
     3    1   39 1
     4    1   40 1
     5    2    3 1
     6    2   26 1
     7    2   41 1
     8    3    4 1
     9    3   42 1
    10    3   43 1
    11    4    9 ar
    12    4    5 ar
    13    5    6 ar
    14    5   44 1
    15    6    7 ar
    16    6   45 1
    17    7    8 ar
    18    7   10 1
    19    8    9 ar
    20    8   46 1
    21    9   47 1
    22   10   11 1
    23   11   16 2
    24   11   12 1
    25   12   13 2
    26   12   17 1
    27   13   14 1
    28   13   15 1
    29   15   16 1
    30   17   18 2
    31   17   19 2
    32   17   20 1
    33   20   25 ar
    34   20   21 ar
    35   21   22 ar
    36   21   48 1
    37   22   23 ar
    38   22   49 1
    39   23   24 ar
    40   23   50 1
    41   24   25 ar
    42   24   51 1
    43   25   52 1
    44   26   27 1
    45   26   53 1
    46   26   63 1
    47   27   28 1
    48   27   54 1
    49   27   55 1
    50   28   29 1
    51   28   37 1
    52   28   56 1
    53   29   34 ar
    54   29   30 ar
    55   30   31 ar
    56   30   57 1
    57   31   32 ar
    58   31   36 1
    59   32   33 ar
    60   32   58 1
    61   33   34 ar
    62   33   35 1
    63   34   59 1
    64   35   60 1
    65   36   61 1
    66   37   62 1
@<TRIPOS>MOLECULE
CHEMBL98773
   49    51     0     0     0
SMALL
USER_CHARGES

@<TRIPOS>ATOM
      1 C1         -0.0184    1.5028    0.0103 C.3       1 <0>        -0.1093
      2 C2          0.0021   -0.0041    0.0020 C.ar      1 <0>        -0.1075
      3 C3          0.0057   -0.6889   -1.1980 C.ar      1 <0>        -0.0812
      4 C4          0.0240   -2.0712   -1.2062 C.ar      1 <0>        -0.1421
      5 C5          0.0391   -2.7720   -0.0142 C.ar      1 <0>        -0.0865
      6 C6          0.0359   -2.0920    1.1881 C.ar      1 <0>        -0.2049
      7 C7          0.0230   -0.7046    1.1991 C.ar      1 <0>         0.1143
      8 O1          0.0255   -0.0332    2.3806 O.3       1 <0>        -0.2992
      9 C8          0.0475   -0.8196    3.5736 C.3       1 <0>         0.0295
     10 C9          0.0471    0.1040    4.7934 C.3       1 <0>         0.0857
     11 C10         0.1962   -0.7319    6.0661 C.3       1 <0>        -0.0428
     12 N1          0.1958    0.1549    7.2372 N.4       1 <0>        -0.5038
     13 C11         0.3390   -0.6477    8.4592 C.3       1 <0>         0.0491
     14 C12         0.3386    0.2621    9.6607 C.ar      1 <0>        -0.1854
     15 C13         1.5296    0.7823   10.1327 C.ar      1 <0>        -0.0573
     16 C14         1.5324    1.6164   11.2336 C.ar      1 <0>        -0.1379
     17 C15         0.3378    1.9326   11.8661 C.ar      1 <0>         0.1886
     18 C16        -0.8564    1.4093   11.3896 C.ar      1 <0>        -0.1363
     19 C17        -0.8535    0.5796   10.2854 C.ar      1 <0>        -0.0576
     20 N2          0.3375    2.7788   12.9843 N.pl3     1 <0>        -0.4281
     21 C18        -0.7582    3.1714   13.7090 C.2       1 <0>        -0.0575
     22 C19        -0.3088    3.9774   14.6896 C.2       1 <0>        -0.0051
     23 N3          1.0235    4.0777   14.5717 N.2       1 <0>        -0.4717
     24 C20         1.4232    3.3597   13.5577 C.2       1 <0>         0.1957
     25 O2         -1.1833    0.8293    4.8412 O.3       1 <0>        -0.5432
     26 H1          1.0042    1.8801    0.0026 H         1 <0>         0.0702
     27 H2         -0.5455    1.8639   -0.8728 H         1 <0>         0.0694
     28 H3         -0.5286    1.8543    0.9071 H         1 <0>         0.0695
     29 H4         -0.0060   -0.1439   -2.1303 H         1 <0>         0.1343
     30 H5          0.0261   -2.6047   -2.1453 H         1 <0>         0.1295
     31 H6          0.0529   -3.8519   -0.0233 H         1 <0>         0.1280
     32 H7          0.0477   -2.6398    2.1188 H         1 <0>         0.1233
     33 H8         -0.8338   -1.4603    3.6027 H         1 <0>         0.0758
     34 H9          0.9459   -1.4367    3.5855 H         1 <0>         0.0810
     35 H10         0.8790    0.8044    4.7191 H         1 <0>         0.1355
     36 H11        -0.6357   -1.4322    6.1404 H         1 <0>         0.1406
     37 H12         1.1347   -1.2851    6.0296 H         1 <0>         0.1480
     38 H13         0.9659    0.8032    7.1685 H         1 <0>         0.4303
     39 H14        -0.4929   -1.3480    8.5335 H         1 <0>         0.1402
     40 H15         1.2775   -1.2009    8.4227 H         1 <0>         0.1412
     41 H16         2.4587    0.5358    9.6402 H         1 <0>         0.1434
     42 H17         2.4630    2.0218   11.6023 H         1 <0>         0.1458
     43 H18        -1.7873    1.6533   11.8799 H         1 <0>         0.1444
     44 H19        -1.7827    0.1754    9.9118 H         1 <0>         0.1422
     45 H20        -1.7847    2.8888   13.5279 H         1 <0>         0.1835
     46 H21        -0.9162    4.4600   15.4410 H         1 <0>         0.1826
     47 H22         2.4457    3.2482   13.2281 H         1 <0>         0.2135
     48 H23        -1.9682    0.2684    4.9078 H         1 <0>         0.3897
     49 H24        -0.6729    0.6670    7.2710 H         1 <0>         0.4327
@<TRIPOS>BOND
     1    1    2 1
     2    1   26 1
     3    1   27 1
     4    1   28 1
     5    2    7 ar
     6    2    3 ar
     7    3    4 ar
     8    3   29 1
     9    4    5 ar
    10    4   30 1
    11    5    6 ar
    12    5   31 1
    13    6    7 ar
    14    6   32 1
    15    7    8 1
    16    8    9 1
    17    9   10 1
    18    9   33 1
    19    9   34 1
    20   10   11 1
    21   10   25 1
    22   10   35 1
    23   11   12 1
    24   11   36 1
    25   11   37 1
    26   12   13 1
    27   12   38 1
    28   12   49 1
    29   13   14 1
    30   13   39 1
    31   13   40 1
    32   14   19 ar
    33   14   15 ar
    34   15   16 ar
    35   15   41 1
    36   16   17 ar
    37   16   42 1
    38   17   18 ar
    39   17   20 1
    40   18   19 ar
    41   18   43 1
    42   19   44 1
    43   20   24 1
    44   20   21 1
    45   21   22 2
    46   21   45 1
    47   22   23 1
    48   22   46 1
    49   23   24 2
    50   24   47 1
    51   25   48 1
@<TRIPOS>MOLECULE
CHEMBL98773
   49    51     0     0     0
SMALL
USER_CHARGES

@<TRIPOS>ATOM
      1 C1         -0.0184    1.5028    0.0103 C.3       1 <0>        -0.1084
      2 C2          0.0021   -0.0041    0.0020 C.ar      1 <0>        -0.1075
      3 C3          0.0057   -0.6889   -1.1980 C.ar      1 <0>        -0.0812
      4 C4          0.0240   -2.0712   -1.2062 C.ar      1 <0>        -0.1421
      5 C5          0.0391   -2.7720   -0.0142 C.ar      1 <0>        -0.0865
      6 C6          0.0359   -2.0920    1.1881 C.ar      1 <0>        -0.2049
      7 C7          0.0230   -0.7046    1.1991 C.ar      1 <0>         0.1143
      8 O1          0.0255   -0.0332    2.3806 O.3       1 <0>        -0.2992
      9 C8          0.0475   -0.8196    3.5736 C.3       1 <0>         0.0294
     10 C9          0.0471    0.1040    4.7934 C.3       1 <0>         0.0859
     11 C10        -0.0552   -0.7352    6.0685 C.3       1 <0>        -0.0426
     12 N1         -0.1761    0.1540    7.2316 N.4       1 <0>        -0.5043
     13 C11        -0.2743   -0.6518    8.4559 C.3       1 <0>         0.0491
     14 C12        -0.3984    0.2604    9.6490 C.ar      1 <0>        -0.1855
     15 C13         0.7382    0.7026   10.3007 C.ar      1 <0>        -0.0567
     16 C14         0.6276    1.5388   11.3945 C.ar      1 <0>        -0.1377
     17 C15        -0.6261    1.9355   11.8392 C.ar      1 <0>         0.1886
     18 C16        -1.7654    1.4903   11.1828 C.ar      1 <0>        -0.1365
     19 C17        -1.6484    0.6581   10.0865 C.ar      1 <0>        -0.0583
     20 N2         -0.7416    2.7840   12.9498 N.pl3     1 <0>        -0.4280
     21 C18        -1.9068    3.2506   13.5012 C.2       1 <0>        -0.0576
     22 C19        -1.5604    4.0288   14.5441 C.2       1 <0>        -0.0051
     23 N3         -0.2221    4.0406   14.6316 N.2       1 <0>        -0.4717
     24 C20         0.2797    3.2940   13.6859 C.2       1 <0>         0.1956
     25 O2          1.2585    0.8616    4.8176 O.3       1 <0>        -0.5424
     26 H1          1.0042    1.8801    0.0026 H         1 <0>         0.0710
     27 H2         -0.5455    1.8639   -0.8728 H         1 <0>         0.0693
     28 H3         -0.5286    1.8543    0.9071 H         1 <0>         0.0679
     29 H4         -0.0060   -0.1439   -2.1303 H         1 <0>         0.1343
     30 H5          0.0261   -2.6047   -2.1453 H         1 <0>         0.1295
     31 H6          0.0529   -3.8519   -0.0233 H         1 <0>         0.1280
     32 H7          0.0477   -2.6398    2.1188 H         1 <0>         0.1233
     33 H8         -0.8338   -1.4603    3.6027 H         1 <0>         0.0805
     34 H9          0.9459   -1.4367    3.5855 H         1 <0>         0.0763
     35 H10        -0.8044    0.7821    4.7354 H         1 <0>         0.1343
     36 H11        -0.9329   -1.3789    6.0105 H         1 <0>         0.1473
     37 H12         0.8394   -1.3492    6.1721 H         1 <0>         0.1413
     38 H13         0.6364    0.7498    7.2853 H         1 <0>         0.4333
     39 H14        -1.1521   -1.2955    8.3978 H         1 <0>         0.1408
     40 H15         0.6203   -1.2658    8.5595 H         1 <0>         0.1406
     41 H16         1.7134    0.3936    9.9542 H         1 <0>         0.1432
     42 H17         1.5157    1.8833   11.9035 H         1 <0>         0.1458
     43 H18        -2.7421    1.7970   11.5267 H         1 <0>         0.1444
     44 H19        -2.5342    0.3147    9.5729 H         1 <0>         0.1424
     45 H20        -2.9100    3.0356   13.1638 H         1 <0>         0.1834
     46 H21        -2.2424    4.5532   15.1971 H         1 <0>         0.1826
     47 H22         1.3309    3.1141   13.5155 H         1 <0>         0.2135
     48 H23         2.0591    0.3217    4.8688 H         1 <0>         0.3903
     49 H24        -1.0043    0.7224    7.1357 H         1 <0>         0.4299
@<TRIPOS>BOND
     1    1    2 1
     2    1   26 1
     3    1   27 1
     4    1   28 1
     5    2    7 ar
     6    2    3 ar
     7    3    4 ar
     8    3   29 1
     9    4    5 ar
    10    4   30 1
    11    5    6 ar
    12    5   31 1
    13    6    7 ar
    14    6   32 1
    15    7    8 1
    16    8    9 1
    17    9   10 1
    18    9   33 1
    19    9   34 1
    20   10   11 1
    21   10   25 1
    22   10   35 1
    23   11   12 1
    24   11   36 1
    25   11   37 1
    26   12   13 1
    27   12   38 1
    28   12   49 1
    29   13   14 1
    30   13   39 1
    31   13   40 1
    32   14   19 ar
    33   14   15 ar
    34   15   16 ar
    35   15   41 1
    36   16   17 ar
    37   16   42 1
    38   17   18 ar
    39   17   20 1
    40   18   19 ar
    41   18   43 1
    42   19   44 1
    43   20   24 1
    44   20   21 1
    45   21   22 2
    46   21   45 1
    47   22   23 1
    48   22   46 1
    49   23   24 2
    50   24   47 1
    51   25   48 1
@<TRIPOS>MOLECULE
CHEMBL287561
   70    74     0     0     0
SMALL
USER_CHARGES

@<TRIPOS>ATOM
      1 C1          9.3001   -1.1799   19.9234 C.ar      1 <0>        -0.0866
      2 C2         10.2730   -0.5612   19.1602 C.ar      1 <0>        -0.1123
      3 C3          9.9236    0.4362   18.2693 C.ar      1 <0>        -0.0779
      4 C4          8.6010    0.8165   18.1408 C.ar      1 <0>        -0.1335
      5 C5          7.6260    0.1978   18.9045 C.ar      1 <0>         0.0999
      6 C6          7.9773   -0.8016   19.7964 C.ar      1 <0>        -0.1409
      7 F1          6.3330    0.5691   18.7800 F         1 <0>        -0.1351
      8 C7         10.9851    1.1095   17.4381 C.3       1 <0>         0.0050
      9 C8         11.1585    0.3605   16.1420 C.2       1 <0>         0.3063
     10 N1         10.5116    0.5936   15.0357 N.2       1 <0>        -0.5331
     11 C9         10.9143   -0.2606   14.0779 C.2       1 <0>         0.2817
     12 N2         11.8313   -1.0502   14.5799 N.2       1 <0>        -0.3180
     13 O1         12.0078   -0.6534   15.9316 O.3       1 <0>        -0.0883
     14 C10        10.4042   -0.3021   12.6848 C.ar      1 <0>         0.0265
     15 C11         9.4263    0.6000   12.2711 C.ar      1 <0>        -0.0887
     16 C12         8.9555    0.5568   10.9744 C.ar      1 <0>        -0.0226
     17 C13         9.4523   -0.3800   10.0863 C.ar      1 <0>        -0.6580
     18 C14        10.4232   -1.2780   10.4917 C.ar      1 <0>        -0.0167
     19 C15        10.9056   -1.2397   11.7843 C.ar      1 <0>        -0.0969
     20 S1          8.8458   -0.4302    8.4327 S.o2      1 <0>         2.6872
     21 O2          8.9591   -1.7787    7.9993 O.2       1 <0>        -0.9375
     22 O3          7.6085    0.2687    8.4326 O.2       1 <0>        -0.9404
     23 N3          9.8898    0.4556    7.5012 N.pl3     1 <0>        -1.0666
     24 C16        10.0559    1.8210    7.7442 C.ar      1 <0>         0.1414
     25 C17         9.0714    2.7216    7.3577 C.ar      1 <0>        -0.0996
     26 C18         9.2385    4.0709    7.5999 C.ar      1 <0>        -0.0982
     27 C19        10.3845    4.5259    8.2260 C.ar      1 <0>        -0.1001
     28 C20        11.3665    3.6321    8.6120 C.ar      1 <0>        -0.1007
     29 C21        11.2032    2.2808    8.3781 C.ar      1 <0>        -0.1071
     30 C22        10.5638    5.9991    8.4877 C.3       1 <0>        -0.1024
     31 C23         9.9829    6.3478    9.8595 C.3       1 <0>        -0.0088
     32 N4         10.1578    7.7839   10.1146 N.4       1 <0>        -0.5056
     33 C24         9.6000    8.1187   11.4317 C.3       1 <0>        -0.0430
     34 C25         9.7821    9.6144   11.6974 C.3       1 <0>         0.1416
     35 H1          9.2638   10.1859   10.9274 H         1 <0>         0.1341
     36 C26         9.2099    9.9579   13.0486 C.ar      1 <0>        -0.2006
     37 C27         7.9110   10.4303   13.1616 C.ar      1 <0>        -0.0545
     38 C28         7.4268   10.7335   14.4246 C.ar      1 <0>        -0.1637
     39 C29         8.2488   10.5561   15.5216 C.ar      1 <0>         0.1228
     40 N5          9.4792   10.1050   15.3765 N.ar      1 <0>        -0.4748
     41 C30         9.9710    9.8006   14.1912 C.ar      1 <0>         0.1171
     42 O4         11.1741    9.9364   11.6738 O.3       1 <0>        -0.5460
     43 H2          9.5738   -1.9621   20.6159 H         1 <0>         0.1407
     44 H3         11.3068   -0.8572   19.2604 H         1 <0>         0.1367
     45 H4          8.3282    1.5963   17.4451 H         1 <0>         0.1399
     46 H5          7.2175   -1.2852   20.3925 H         1 <0>         0.1411
     47 H6         10.6848    2.1359   17.2272 H         1 <0>         0.1276
     48 H7         11.9278    1.1119   17.9853 H         1 <0>         0.1235
     49 H8          9.0372    1.3314   12.9639 H         1 <0>         0.1486
     50 H9          8.1975    1.2556   10.6527 H         1 <0>         0.1493
     51 H10        10.8074   -2.0077    9.7944 H         1 <0>         0.1521
     52 H11        11.6671   -1.9381   12.0985 H         1 <0>         0.1463
     53 H12        10.3861    0.0263    6.7869 H         1 <0>         0.4322
     54 H13         8.1765    2.3670    6.8680 H         1 <0>         0.1438
     55 H14         8.4735    4.7717    7.2996 H         1 <0>         0.1337
     56 H15        12.2603    3.9907    9.1008 H         1 <0>         0.1309
     57 H16        11.9685    1.5828    8.6839 H         1 <0>         0.1356
     58 H17        11.6257    6.2447    8.4696 H         1 <0>         0.0988
     59 H18        10.0456    6.5706    7.7177 H         1 <0>         0.0997
     60 H19         8.9211    6.1022    9.8775 H         1 <0>         0.1359
     61 H20        10.5012    5.7763   10.6295 H         1 <0>         0.1341
     62 H21        11.1407    8.0113   10.0979 H         1 <0>         0.4327
     63 H22         8.5382    7.8731   11.4497 H         1 <0>         0.1455
     64 H23        10.1183    7.5472   12.2017 H         1 <0>         0.1377
     65 H24         7.2916   10.5593   12.2863 H         1 <0>         0.1412
     66 H25         6.4200   11.1040   14.5499 H         1 <0>         0.1473
     67 H26         7.8790   10.7899   16.5091 H         1 <0>         0.1672
     68 H27        10.9818    9.4287   14.1122 H         1 <0>         0.1525
     69 H28        11.6985    9.4634   12.3343 H         1 <0>         0.3897
     70 H29         9.6780    8.3130    9.4018 H         1 <0>         0.4303
@<TRIPOS>BOND
     1    1    6 ar
     2    1    2 ar
     3    1   43 1
     4    2    3 ar
     5    2   44 1
     6    3    4 ar
     7    3    8 1
     8    4    5 ar
     9    4   45 1
    10    5    6 ar
    11    5    7 1
    12    6   46 1
    13    8    9 1
    14    8   47 1
    15    8   48 1
    16    9   13 1
    17    9   10 2
    18   10   11 1
    19   11   12 2
    20   11   14 1
    21   12   13 1
    22   14   19 ar
    23   14   15 ar
    24   15   16 ar
    25   15   49 1
    26   16   17 ar
    27   16   50 1
    28   17   18 ar
    29   17   20 1
    30   18   19 ar
    31   18   51 1
    32   19   52 1
    33   20   21 2
    34   20   22 2
    35   20   23 1
    36   23   24 1
    37   23   53 1
    38   24   29 ar
    39   24   25 ar
    40   25   26 ar
    41   25   54 1
    42   26   27 ar
    43   26   55 1
    44   27   28 ar
    45   27   30 1
    46   28   29 ar
    47   28   56 1
    48   29   57 1
    49   30   31 1
    50   30   58 1
    51   30   59 1
    52   31   32 1
    53   31   60 1
    54   31   61 1
    55   32   33 1
    56   32   62 1
    57   32   70 1
    58   33   34 1
    59   33   63 1
    60   33   64 1
    61   34   35 1
    62   34   36 1
    63   34   42 1
    64   36   41 ar
    65   36   37 ar
    66   37   38 ar
    67   37   65 1
    68   38   39 ar
    69   38   66 1
    70   39   40 ar
    71   39   67 1
    72   40   41 ar
    73   41   68 1
    74   42   69 1
@<TRIPOS>MOLECULE
CHEMBL287561
   69    73     0     0     0
SMALL
USER_CHARGES

@<TRIPOS>ATOM
      1 C1         -0.0167    1.3775    0.0096 C.ar      1 <0>        -0.0898
      2 C2          1.1709    2.0856    0.0021 C.ar      1 <0>        -0.1134
      3 C3          2.3781    1.4125   -0.0130 C.ar      1 <0>        -0.0718
      4 C4          2.3993    0.0305   -0.0211 C.ar      1 <0>        -0.1317
      5 C5          1.2109   -0.6795   -0.0135 C.ar      1 <0>         0.0994
      6 C6          0.0021   -0.0041    0.0020 C.ar      1 <0>        -0.1449
      7 F1          1.2304   -2.0304   -0.0218 F         1 <0>        -0.1359
      8 C7          3.6716    2.1857   -0.0212 C.3       1 <0>         0.0054
      9 C8          4.1163    2.4359    1.3968 C.2       1 <0>         0.2962
     10 N1          4.8873    1.6576    2.1012 N.2       1 <0>        -0.5277
     11 C9          5.0812    2.1849    3.3233 C.2       1 <0>         0.2985
     12 N2          4.4245    3.3159    3.4002 N.2       1 <0>        -0.3275
     13 O1          3.7900    3.4988    2.1433 O.3       1 <0>        -0.0985
     14 C10         5.9017    1.5849    4.4048 C.ar      1 <0>        -0.0040
     15 C11         6.5573    0.3736    4.1949 C.ar      1 <0>        -0.0881
     16 C12         7.3189   -0.1799    5.2042 C.ar      1 <0>        -0.0296
     17 C13         7.4316    0.4655    6.4224 C.ar      1 <0>        -0.5949
     18 C14         6.7828    1.6683    6.6362 C.ar      1 <0>        -0.0274
     19 C15         6.0236    2.2338    5.6317 C.ar      1 <0>        -0.0995
     20 S1          8.4046   -0.2474    7.7068 S.o2      1 <0>         2.6065
     21 O2          7.9083    0.2767    8.9308 O.2       1 <0>        -1.0211
     22 O3          8.4646   -1.6426    7.4441 O.2       1 <0>        -1.0228
     23 N3          9.9456    0.3336    7.5335 N.2       1 <0>        -1.0807
     24 C16        10.9464   -0.0650    8.4226 C.ar      1 <0>         0.2962
     25 C17        10.6520   -0.9532    9.4493 C.ar      1 <0>        -0.2646
     26 C18        11.6440   -1.3457   10.3263 C.ar      1 <0>        -0.0475
     27 C19        12.9290   -0.8551   10.1836 C.ar      1 <0>        -0.2350
     28 C20        13.2255    0.0292    9.1627 C.ar      1 <0>        -0.0636
     29 C21        12.2396    0.4213    8.2786 C.ar      1 <0>        -0.1801
     30 C22        14.0086   -1.2849   11.1432 C.3       1 <0>        -0.0714
     31 C23        14.7010   -2.5382   10.6039 C.3       1 <0>        -0.0111
     32 N4         15.7534   -2.9571   11.5393 N.4       1 <0>        -0.5054
     33 C24        16.4181   -4.1604   11.0215 C.3       1 <0>        -0.0426
     34 C25        17.5142   -4.5967   11.9957 C.3       1 <0>         0.1404
     35 H1         17.0708   -4.8160   12.9670 H         1 <0>         0.1328
     36 C26        18.1961   -5.8312   11.4645 C.ar      1 <0>        -0.1952
     37 C27        17.7865   -7.0910   11.8746 C.ar      1 <0>        -0.0552
     38 C28        18.4429   -8.1982   11.3597 C.ar      1 <0>        -0.1652
     39 C29        19.4764   -8.0110   10.4612 C.ar      1 <0>         0.1186
     40 N5         19.8394   -6.7978   10.0939 N.ar      1 <0>        -0.4762
     41 C30        19.2337   -5.7222   10.5584 C.ar      1 <0>         0.1169
     42 O4         18.4726   -3.5461   12.1359 O.3       1 <0>        -0.5469
     43 H2         -0.9592    1.9045    0.0259 H         1 <0>         0.1379
     44 H3          1.1553    3.1655    0.0076 H         1 <0>         0.1358
     45 H4          3.3426   -0.4952   -0.0336 H         1 <0>         0.1430
     46 H5         -0.9257   -0.5570    0.0082 H         1 <0>         0.1384
     47 H6          4.4351    1.6110   -0.5454 H         1 <0>         0.1283
     48 H7          3.5219    3.1388   -0.5286 H         1 <0>         0.1211
     49 H8          6.4695   -0.1315    3.2444 H         1 <0>         0.1444
     50 H9          7.8276   -1.1188    5.0426 H         1 <0>         0.1468
     51 H10         6.8738    2.1678    7.5893 H         1 <0>         0.1471
     52 H11         5.5213    3.1753    5.7980 H         1 <0>         0.1380
     53 H12         9.6485   -1.3361    9.5617 H         1 <0>         0.1016
     54 H13        11.4158   -2.0362   11.1248 H         1 <0>         0.1020
     55 H14        14.2301    0.4104    9.0540 H         1 <0>         0.1050
     56 H15        12.4728    1.1085    7.4788 H         1 <0>         0.1172
     57 H16        14.7397   -0.4835   11.2501 H         1 <0>         0.0809
     58 H17        13.5652   -1.5042   12.1145 H         1 <0>         0.0797
     59 H18        13.9699   -3.3395   10.4969 H         1 <0>         0.1304
     60 H19        15.1444   -2.3189    9.6326 H         1 <0>         0.1308
     61 H20        16.4301   -2.2153   11.6383 H         1 <0>         0.4292
     62 H21        15.6870   -4.9618   10.9145 H         1 <0>         0.1429
     63 H22        16.8615   -3.9411   10.0502 H         1 <0>         0.1361
     64 H23        16.9757   -7.2068   12.5786 H         1 <0>         0.1413
     65 H24        18.1506   -9.1944   11.6572 H         1 <0>         0.1455
     66 H25        19.9928   -8.8684   10.0554 H         1 <0>         0.1651
     67 H26        19.5554   -4.7449   10.2304 H         1 <0>         0.1538
     68 H27        18.9081   -3.2980   11.3090 H         1 <0>         0.3893
     69 H28        15.3429   -3.1601   12.4384 H         1 <0>         0.4264
@<TRIPOS>BOND
     1    1    6 ar
     2    1    2 ar
     3    1   43 1
     4    2    3 ar
     5    2   44 1
     6    3    4 ar
     7    3    8 1
     8    4    5 ar
     9    4   45 1
    10    5    6 ar
    11    5    7 1
    12    6   46 1
    13    8    9 1
    14    8   47 1
    15    8   48 1
    16    9   13 1
    17    9   10 2
    18   10   11 1
    19   11   12 2
    20   11   14 1
    21   12   13 1
    22   14   19 ar
    23   14   15 ar
    24   15   16 ar
    25   15   49 1
    26   16   17 ar
    27   16   50 1
    28   17   18 ar
    29   17   20 1
    30   18   19 ar
    31   18   51 1
    32   19   52 1
    33   20   21 2
    34   20   22 2
    35   20   23 1
    36   23   24 1
    37   24   29 ar
    38   24   25 ar
    39   25   26 ar
    40   25   53 1
    41   26   27 ar
    42   26   54 1
    43   27   28 ar
    44   27   30 1
    45   28   29 ar
    46   28   55 1
    47   29   56 1
    48   30   31 1
    49   30   57 1
    50   30   58 1
    51   31   32 1
    52   31   59 1
    53   31   60 1
    54   32   33 1
    55   32   61 1
    56   32   69 1
    57   33   34 1
    58   33   62 1
    59   33   63 1
    60   34   35 1
    61   34   36 1
    62   34   42 1
    63   36   41 ar
    64   36   37 ar
    65   37   38 ar
    66   37   64 1
    67   38   39 ar
    68   38   65 1
    69   39   40 ar
    70   39   66 1
    71   40   41 ar
    72   41   67 1
    73   42   68 1
@<TRIPOS>MOLECULE
CHEMBL244321
   56    58     0     0     0
SMALL
USER_CHARGES

@<TRIPOS>ATOM
      1 C1         -0.0187    1.5258    0.0104 C.3       1 <0>        -0.1843
      2 C2          0.0021   -0.0041    0.0020 C.3       1 <0>         0.0287
      3 C3          0.7421   -0.5109    1.2415 C.3       1 <0>        -0.0932
      4 C4          0.6567   -2.0144    1.2978 C.ar      1 <0>        -0.1681
      5 C5         -0.3968   -2.6218    1.9557 C.ar      1 <0>        -0.0620
      6 C6         -0.4771   -3.9998    2.0091 C.ar      1 <0>        -0.1367
      7 C7          0.5003   -4.7745    1.4014 C.ar      1 <0>         0.1543
      8 C8          1.5561   -4.1627    0.7414 C.ar      1 <0>        -0.1951
      9 C9          1.6291   -2.7842    0.6865 C.ar      1 <0>        -0.0939
     10 O1          0.4238   -6.1304    1.4528 O.3       1 <0>        -0.2995
     11 C10         1.4651   -6.8639    0.8051 C.3       1 <0>         0.1279
     12 C11         1.2138   -8.3411    0.9660 C.2       1 <0>         0.1038
     13 C12         1.6946   -9.1739    2.0665 C.2       1 <0>         0.0458
     14 N1          1.2803  -10.3988    1.8666 N.2       1 <0>        -0.2211
     15 O2          0.5348  -10.4091    0.6616 O.3       1 <0>         0.0623
     16 N2          0.5290   -9.0870    0.1528 N.2       1 <0>        -0.2339
     17 C13         2.5126   -8.7102    3.2131 C.2       1 <0>         0.6014
     18 O3          2.8401   -7.5429    3.2930 O.2       1 <0>        -0.5067
     19 N3          2.8929   -9.5837    4.1665 N.am      1 <0>        -0.8215
     20 N4          0.6897   -0.4778   -1.2066 N.4       1 <0>        -0.5060
     21 C14        -0.0856   -0.0931   -2.3936 C.3       1 <0>        -0.0467
     22 C15         0.6305   -0.5866   -3.6524 C.3       1 <0>         0.1361
     23 C16        -0.0983   -0.0873   -4.8733 C.ar      1 <0>        -0.1058
     24 C17        -1.2415   -0.7319   -5.3057 C.ar      1 <0>        -0.1471
     25 C18        -1.9145   -0.2741   -6.4297 C.ar      1 <0>         0.1388
     26 C19        -1.4389    0.8308   -7.1188 C.ar      1 <0>        -0.1582
     27 C20        -0.2918    1.4758   -6.6829 C.ar      1 <0>         0.1380
     28 C21         0.3745    1.0176   -5.5551 C.ar      1 <0>        -0.1403
     29 O4          0.1771    2.5589   -7.3566 O.3       1 <0>        -0.4910
     30 O5         -3.0384   -0.9087   -6.8548 O.3       1 <0>        -0.4911
     31 O6          0.6499   -2.0154   -3.6603 O.3       1 <0>        -0.5443
     32 H1          1.0039    1.9031    0.0027 H         1 <0>         0.0844
     33 H2         -0.5459    1.8868   -0.8726 H         1 <0>         0.0818
     34 H3         -0.5289    1.8773    0.9072 H         1 <0>         0.1087
     35 H4         -1.0205   -0.3814    0.0098 H         1 <0>         0.1402
     36 H5          1.7879   -0.2080    1.1895 H         1 <0>         0.0975
     37 H6          0.2852   -0.0874    2.1360 H         1 <0>         0.1213
     38 H7         -1.1575   -2.0183    2.4286 H         1 <0>         0.1376
     39 H8         -1.2999   -4.4738    2.5237 H         1 <0>         0.1408
     40 H9          2.3183   -4.7635    0.2676 H         1 <0>         0.1383
     41 H10         2.4485   -2.3075    0.1691 H         1 <0>         0.1262
     42 H11         1.4820   -6.6116   -0.2551 H         1 <0>         0.0994
     43 H12         2.4242   -6.6074    1.2550 H         1 <0>         0.1182
     44 H13         2.6314  -10.5156    4.1027 H         1 <0>         0.4144
     45 H14         3.4280   -9.2803    4.9165 H         1 <0>         0.4219
     46 H15         1.6080   -0.0627   -1.2556 H         1 <0>         0.4253
     47 H16        -1.0777   -0.5415   -2.3406 H         1 <0>         0.1372
     48 H17        -0.1790    0.9922   -2.4305 H         1 <0>         0.1473
     49 H18         1.6531   -0.2093   -3.6601 H         1 <0>         0.1336
     50 H19        -1.6113   -1.5929   -4.7688 H         1 <0>         0.1322
     51 H20        -1.9611    1.1884   -7.9940 H         1 <0>         0.1449
     52 H21         1.2657    1.5223   -5.2126 H         1 <0>         0.1380
     53 H22        -0.1782    3.4016   -7.0424 H         1 <0>         0.4002
     54 H23        -3.8550   -0.5637   -6.4684 H         1 <0>         0.3999
     55 H24        -0.2280   -2.4207   -3.6540 H         1 <0>         0.3895
     56 H25         0.7761   -1.4825   -1.1724 H         1 <0>         0.4304
@<TRIPOS>BOND
     1    1    2 1
     2    1   32 1
     3    1   33 1
     4    1   34 1
     5    2    3 1
     6    2   20 1
     7    2   35 1
     8    3    4 1
     9    3   36 1
    10    3   37 1
    11    4    9 ar
    12    4    5 ar
    13    5    6 ar
    14    5   38 1
    15    6    7 ar
    16    6   39 1
    17    7    8 ar
    18    7   10 1
    19    8    9 ar
    20    8   40 1
    21    9   41 1
    22   10   11 1
    23   11   12 1
    24   11   42 1
    25   11   43 1
    26   12   16 2
    27   12   13 1
    28   13   14 2
    29   13   17 1
    30   14   15 1
    31   15   16 1
    32   17   18 2
    33   17   19 am
    34   19   44 1
    35   19   45 1
    36   20   21 1
    37   20   46 1
    38   20   56 1
    39   21   22 1
    40   21   47 1
    41   21   48 1
    42   22   23 1
    43   22   31 1
    44   22   49 1
    45   23   28 ar
    46   23   24 ar
    47   24   25 ar
    48   24   50 1
    49   25   26 ar
    50   25   30 1
    51   26   27 ar
    52   26   51 1
    53   27   28 ar
    54   27   29 1
    55   28   52 1
    56   29   53 1
    57   30   54 1
    58   31   55 1
@<TRIPOS>MOLECULE
CHEMBL244321
   56    58     0     0     0
SMALL
USER_CHARGES

@<TRIPOS>ATOM
      1 C1         -0.0187    1.5258    0.0104 C.3       1 <0>        -0.1845
      2 C2          0.0021   -0.0041    0.0020 C.3       1 <0>         0.0284
      3 C3          0.7421   -0.5109    1.2415 C.3       1 <0>        -0.0931
      4 C4          0.6567   -2.0144    1.2978 C.ar      1 <0>        -0.1666
      5 C5         -0.3968   -2.6218    1.9557 C.ar      1 <0>        -0.0613
      6 C6         -0.4771   -3.9998    2.0091 C.ar      1 <0>        -0.1359
      7 C7          0.5003   -4.7745    1.4014 C.ar      1 <0>         0.1538
      8 C8          1.5561   -4.1627    0.7414 C.ar      1 <0>        -0.1971
      9 C9          1.6291   -2.7842    0.6865 C.ar      1 <0>        -0.0965
     10 O1          0.4238   -6.1304    1.4528 O.3       1 <0>        -0.2993
     11 C10         1.4651   -6.8639    0.8051 C.3       1 <0>         0.1281
     12 C11         1.2138   -8.3411    0.9660 C.2       1 <0>         0.1038
     13 C12         1.6946   -9.1739    2.0665 C.2       1 <0>         0.0459
     14 N1          1.2803  -10.3988    1.8666 N.2       1 <0>        -0.2209
     15 O2          0.5348  -10.4091    0.6616 O.3       1 <0>         0.0623
     16 N2          0.5290   -9.0870    0.1528 N.2       1 <0>        -0.2343
     17 C13         2.5126   -8.7102    3.2131 C.2       1 <0>         0.6014
     18 O3          2.8401   -7.5429    3.2930 O.2       1 <0>        -0.5067
     19 N3          2.8929   -9.5837    4.1665 N.am      1 <0>        -0.8215
     20 N4          0.6897   -0.4778   -1.2066 N.4       1 <0>        -0.5046
     21 C14        -0.0856   -0.0931   -2.3936 C.3       1 <0>        -0.0476
     22 C15         0.6305   -0.5866   -3.6524 C.3       1 <0>         0.1368
     23 C16        -0.1648   -0.1919   -4.8701 C.ar      1 <0>        -0.1059
     24 C17         0.0063    1.0598   -5.4298 C.ar      1 <0>        -0.1462
     25 C18        -0.7249    1.4255   -6.5511 C.ar      1 <0>         0.1386
     26 C19        -1.6276    0.5339   -7.1098 C.ar      1 <0>        -0.1579
     27 C20        -1.7974   -0.7214   -6.5464 C.ar      1 <0>         0.1382
     28 C21        -1.0597   -1.0844   -5.4284 C.ar      1 <0>        -0.1413
     29 O4         -2.6818   -1.5974   -7.0915 O.3       1 <0>        -0.4931
     30 O5         -0.5565    2.6569   -7.1008 O.3       1 <0>        -0.4936
     31 O6          1.9312    0.0013   -3.7219 O.3       1 <0>        -0.5460
     32 H1          1.0039    1.9031    0.0027 H         1 <0>         0.0841
     33 H2         -0.5459    1.8868   -0.8726 H         1 <0>         0.0819
     34 H3         -0.5289    1.8773    0.9072 H         1 <0>         0.1090
     35 H4         -1.0205   -0.3814    0.0098 H         1 <0>         0.1411
     36 H5          1.7879   -0.2080    1.1895 H         1 <0>         0.0976
     37 H6          0.2852   -0.0874    2.1360 H         1 <0>         0.1215
     38 H7         -1.1575   -2.0183    2.4286 H         1 <0>         0.1382
     39 H8         -1.2999   -4.4738    2.5237 H         1 <0>         0.1411
     40 H9          2.3183   -4.7635    0.2676 H         1 <0>         0.1382
     41 H10         2.4485   -2.3075    0.1691 H         1 <0>         0.1270
     42 H11         1.4820   -6.6116   -0.2551 H         1 <0>         0.0987
     43 H12         2.4242   -6.6074    1.2550 H         1 <0>         0.1183
     44 H13         2.6314  -10.5156    4.1027 H         1 <0>         0.4145
     45 H14         3.4280   -9.2803    4.9165 H         1 <0>         0.4220
     46 H15         1.6080   -0.0627   -1.2556 H         1 <0>         0.4280
     47 H16        -1.0777   -0.5415   -2.3406 H         1 <0>         0.1458
     48 H17        -0.1790    0.9922   -2.4305 H         1 <0>         0.1408
     49 H18         0.7239   -1.6719   -3.6155 H         1 <0>         0.1339
     50 H19         0.7094    1.7542   -4.9940 H         1 <0>         0.1327
     51 H20        -2.1978    0.8169   -7.9822 H         1 <0>         0.1447
     52 H21        -1.1885   -2.0638   -4.9918 H         1 <0>         0.1375
     53 H22        -2.2999   -2.1709   -7.7699 H         1 <0>         0.4025
     54 H23         0.1305    2.6937   -7.7804 H         1 <0>         0.4024
     55 H24         1.9246    0.9676   -3.7575 H         1 <0>         0.3890
     56 H25         0.7761   -1.4825   -1.1724 H         1 <0>         0.4262
@<TRIPOS>BOND
     1    1    2 1
     2    1   32 1
     3    1   33 1
     4    1   34 1
     5    2    3 1
     6    2   20 1
     7    2   35 1
     8    3    4 1
     9    3   36 1
    10    3   37 1
    11    4    9 ar
    12    4    5 ar
    13    5    6 ar
    14    5   38 1
    15    6    7 ar
    16    6   39 1
    17    7    8 ar
    18    7   10 1
    19    8    9 ar
    20    8   40 1
    21    9   41 1
    22   10   11 1
    23   11   12 1
    24   11   42 1
    25   11   43 1
    26   12   16 2
    27   12   13 1
    28   13   14 2
    29   13   17 1
    30   14   15 1
    31   15   16 1
    32   17   18 2
    33   17   19 am
    34   19   44 1
    35   19   45 1
    36   20   21 1
    37   20   46 1
    38   20   56 1
    39   21   22 1
    40   21   47 1
    41   21   48 1
    42   22   23 1
    43   22   31 1
    44   22   49 1
    45   23   28 ar
    46   23   24 ar
    47   24   25 ar
    48   24   50 1
    49   25   26 ar
    50   25   30 1
    51   26   27 ar
    52   26   51 1
    53   27   28 ar
    54   27   29 1
    55   28   52 1
    56   29   53 1
    57   30   54 1
    58   31   55 1
@<TRIPOS>MOLECULE
CHEMBL244321
   56    58     0     0     0
SMALL
USER_CHARGES

@<TRIPOS>ATOM
      1 C1         -0.0187    1.5258    0.0104 C.3       1 <0>        -0.1842
      2 C2          0.0021   -0.0041    0.0020 C.3       1 <0>         0.0290
      3 C3          0.7182   -0.4975   -1.2568 C.3       1 <0>        -0.0934
      4 C4          0.6316   -2.0003   -1.3275 C.ar      1 <0>        -0.1675
      5 C5          1.6125   -2.7766   -0.7383 C.ar      1 <0>        -0.0988
      6 C6          1.5356   -4.1544   -0.8021 C.ar      1 <0>        -0.1370
      7 C7          0.4730   -4.7591   -1.4577 C.ar      1 <0>         0.1539
      8 C8         -0.5101   -3.9780   -2.0477 C.ar      1 <0>        -0.1957
      9 C9         -0.4314   -2.6006   -1.9766 C.ar      1 <0>        -0.0590
     10 O1          0.3954   -6.1144   -1.5223 O.3       1 <0>        -0.2999
     11 C10        -0.7264   -6.6678   -2.2132 C.3       1 <0>         0.1277
     12 C11        -0.6434   -8.1722   -2.1818 C.2       1 <0>         0.1041
     13 C12         0.0260   -9.0111   -3.1738 C.2       1 <0>         0.0460
     14 N1         -0.1105  -10.2617   -2.8140 N.2       1 <0>        -0.2210
     15 O2         -0.8535  -10.2832   -1.6075 O.3       1 <0>         0.0622
     16 N2         -1.1500   -8.9408   -1.2658 N.2       1 <0>        -0.2343
     17 C13         0.7375   -8.5278   -4.3816 C.2       1 <0>         0.6013
     18 O3          0.7990   -7.3369   -4.6146 O.2       1 <0>        -0.5065
     19 N3          1.3158   -9.4095   -5.2210 N.am      1 <0>        -0.8215
     20 N4          0.7126   -0.4907    1.1921 N.4       1 <0>        -0.5059
     21 C14        -0.0398   -0.1189    2.3978 C.3       1 <0>        -0.0462
     22 C15         0.7001   -0.6257    3.6373 C.3       1 <0>         0.1359
     23 C16        -0.1305   -0.3530    4.8648 C.ar      1 <0>        -0.1057
     24 C17        -0.1415    0.9108    5.4234 C.ar      1 <0>        -0.1471
     25 C18        -0.9056    1.1645    6.5537 C.ar      1 <0>         0.1384
     26 C19        -1.6583    0.1486    7.1224 C.ar      1 <0>        -0.1582
     27 C20        -1.6456   -1.1185    6.5601 C.ar      1 <0>         0.1382
     28 C21        -0.8843   -1.3657    5.4264 C.ar      1 <0>        -0.1402
     29 O4         -2.3821   -2.1164    7.1156 O.3       1 <0>        -0.4910
     30 O5         -0.9156    2.4075    7.1029 O.3       1 <0>        -0.4910
     31 O6          1.9549    0.0485    3.7518 O.3       1 <0>        -0.5439
     32 H1          1.0039    1.9031    0.0027 H         1 <0>         0.0846
     33 H2         -0.5459    1.8868   -0.8726 H         1 <0>         0.1086
     34 H3         -0.5289    1.8773    0.9072 H         1 <0>         0.0811
     35 H4         -1.0205   -0.3814    0.0098 H         1 <0>         0.1403
     36 H5          0.2444   -0.0644   -2.1377 H         1 <0>         0.1210
     37 H6          1.7648   -0.1951   -1.2215 H         1 <0>         0.0982
     38 H7          2.4395   -2.3054   -0.2281 H         1 <0>         0.1306
     39 H8          2.3024   -4.7604   -0.3424 H         1 <0>         0.1410
     40 H9         -1.3383   -4.4464   -2.5587 H         1 <0>         0.1385
     41 H10        -1.1987   -1.9921   -2.4319 H         1 <0>         0.1344
     42 H11        -1.6474   -6.3445   -1.7283 H         1 <0>         0.0998
     43 H12        -0.7209   -6.3251   -3.2480 H         1 <0>         0.1188
     44 H13         1.2667  -10.3602   -5.0350 H         1 <0>         0.4144
     45 H14         1.7812   -9.0933   -6.0112 H         1 <0>         0.4220
     46 H15         0.7982   -1.4950    1.1455 H         1 <0>         0.4268
     47 H16        -0.1324    0.9660    2.4481 H         1 <0>         0.1401
     48 H17        -1.0328   -0.5668    2.3589 H         1 <0>         0.1445
     49 H18         0.8710   -1.6983    3.5452 H         1 <0>         0.1330
     50 H19         0.4454    1.7017    4.9801 H         1 <0>         0.1326
     51 H20        -2.2533    0.3440    8.0023 H         1 <0>         0.1449
     52 H21        -0.8776   -2.3515    4.9854 H         1 <0>         0.1378
     53 H22        -3.2804   -2.1847    6.7641 H         1 <0>         0.4002
     54 H23        -1.6033    2.9881    6.7493 H         1 <0>         0.3996
     55 H24         1.8791    1.0087    3.8375 H         1 <0>         0.3892
     56 H25         1.6317   -0.0761    1.2281 H         1 <0>         0.4292
@<TRIPOS>BOND
     1    1    2 1
     2    1   32 1
     3    1   33 1
     4    1   34 1
     5    2    3 1
     6    2   20 1
     7    2   35 1
     8    3    4 1
     9    3   36 1
    10    3   37 1
    11    4    9 ar
    12    4    5 ar
    13    5    6 ar
    14    5   38 1
    15    6    7 ar
    16    6   39 1
    17    7    8 ar
    18    7   10 1
    19    8    9 ar
    20    8   40 1
    21    9   41 1
    22   10   11 1
    23   11   12 1
    24   11   42 1
    25   11   43 1
    26   12   16 2
    27   12   13 1
    28   13   14 2
    29   13   17 1
    30   14   15 1
    31   15   16 1
    32   17   18 2
    33   17   19 am
    34   19   44 1
    35   19   45 1
    36   20   21 1
    37   20   46 1
    38   20   56 1
    39   21   22 1
    40   21   47 1
    41   21   48 1
    42   22   23 1
    43   22   31 1
    44   22   49 1
    45   23   28 ar
    46   23   24 ar
    47   24   25 ar
    48   24   50 1
    49   25   26 ar
    50   25   30 1
    51   26   27 ar
    52   26   51 1
    53   27   28 ar
    54   27   29 1
    55   28   52 1
    56   29   53 1
    57   30   54 1
    58   31   55 1
@<TRIPOS>MOLECULE
CHEMBL244321
   56    58     0     0     0
SMALL
USER_CHARGES

@<TRIPOS>ATOM
      1 C1         -0.0187    1.5258    0.0104 C.3       1 <0>        -0.1848
      2 C2          0.0021   -0.0041    0.0020 C.3       1 <0>         0.0287
      3 C3          0.7182   -0.4975   -1.2568 C.3       1 <0>        -0.0931
      4 C4          0.6316   -2.0003   -1.3275 C.ar      1 <0>        -0.1681
      5 C5          1.6125   -2.7766   -0.7383 C.ar      1 <0>        -0.0963
      6 C6          1.5356   -4.1544   -0.8021 C.ar      1 <0>        -0.1357
      7 C7          0.4730   -4.7591   -1.4577 C.ar      1 <0>         0.1536
      8 C8         -0.5101   -3.9780   -2.0477 C.ar      1 <0>        -0.1960
      9 C9         -0.4314   -2.6006   -1.9766 C.ar      1 <0>        -0.0593
     10 O1          0.3954   -6.1144   -1.5223 O.3       1 <0>        -0.2999
     11 C10        -0.7264   -6.6678   -2.2132 C.3       1 <0>         0.1275
     12 C11        -0.6434   -8.1722   -2.1818 C.2       1 <0>         0.1044
     13 C12         0.0260   -9.0111   -3.1738 C.2       1 <0>         0.0461
     14 N1         -0.1105  -10.2617   -2.8140 N.2       1 <0>        -0.2213
     15 O2         -0.8535  -10.2832   -1.6075 O.3       1 <0>         0.0620
     16 N2         -1.1500   -8.9408   -1.2658 N.2       1 <0>        -0.2343
     17 C13         0.7375   -8.5278   -4.3816 C.2       1 <0>         0.6012
     18 O3          0.7990   -7.3369   -4.6146 O.2       1 <0>        -0.5063
     19 N3          1.3158   -9.4095   -5.2210 N.am      1 <0>        -0.8216
     20 N4          0.7126   -0.4907    1.1921 N.4       1 <0>        -0.5051
     21 C14        -0.0398   -0.1189    2.3978 C.3       1 <0>        -0.0477
     22 C15         0.7001   -0.6257    3.6373 C.3       1 <0>         0.1364
     23 C16        -0.0717   -0.2443    4.8741 C.ar      1 <0>        -0.1057
     24 C17        -1.0971   -1.0537    5.3242 C.ar      1 <0>        -0.1462
     25 C18        -1.8094   -0.7046    6.4629 C.ar      1 <0>         0.1387
     26 C19        -1.4914    0.4573    7.1490 C.ar      1 <0>        -0.1581
     27 C20        -0.4622    1.2678    6.6954 C.ar      1 <0>         0.1377
     28 C21         0.2508    0.9115    5.5594 C.ar      1 <0>        -0.1413
     29 O4         -0.1485    2.4077    7.3655 O.3       1 <0>        -0.4933
     30 O5         -2.8180   -1.5009    6.9049 O.3       1 <0>        -0.4936
     31 O6          0.8214   -2.0480    3.5713 O.3       1 <0>        -0.5455
     32 H1          1.0039    1.9031    0.0027 H         1 <0>         0.0844
     33 H2         -0.5459    1.8868   -0.8726 H         1 <0>         0.1086
     34 H3         -0.5289    1.8773    0.9072 H         1 <0>         0.0826
     35 H4         -1.0205   -0.3814    0.0098 H         1 <0>         0.1399
     36 H5          0.2444   -0.0644   -2.1377 H         1 <0>         0.1210
     37 H6          1.7648   -0.1951   -1.2215 H         1 <0>         0.0978
     38 H7          2.4395   -2.3054   -0.2281 H         1 <0>         0.1298
     39 H8          2.3024   -4.7604   -0.3424 H         1 <0>         0.1407
     40 H9         -1.3383   -4.4464   -2.5587 H         1 <0>         0.1382
     41 H10        -1.1987   -1.9921   -2.4319 H         1 <0>         0.1341
     42 H11        -1.6474   -6.3445   -1.7283 H         1 <0>         0.0998
     43 H12        -0.7209   -6.3251   -3.2480 H         1 <0>         0.1187
     44 H13         1.2667  -10.3602   -5.0350 H         1 <0>         0.4143
     45 H14         1.7812   -9.0933   -6.0112 H         1 <0>         0.4219
     46 H15         0.7982   -1.4950    1.1455 H         1 <0>         0.4298
     47 H16        -0.1324    0.9660    2.4481 H         1 <0>         0.1482
     48 H17        -1.0328   -0.5668    2.3589 H         1 <0>         0.1376
     49 H18         1.6931   -0.1778    3.6761 H         1 <0>         0.1352
     50 H19        -1.3447   -1.9586    4.7892 H         1 <0>         0.1323
     51 H20        -2.0448    0.7309    8.0352 H         1 <0>         0.1446
     52 H21         1.0556    1.5402    5.2081 H         1 <0>         0.1378
     53 H22         0.5165    2.2870    8.0571 H         1 <0>         0.4025
     54 H23        -2.5359   -2.1825    7.5302 H         1 <0>         0.4025
     55 H24        -0.0252   -2.5137    3.5341 H         1 <0>         0.3891
     56 H25         1.6317   -0.0761    1.2281 H         1 <0>         0.4253
@<TRIPOS>BOND
     1    1    2 1
     2    1   32 1
     3    1   33 1
     4    1   34 1
     5    2    3 1
     6    2   20 1
     7    2   35 1
     8    3    4 1
     9    3   36 1
    10    3   37 1
    11    4    9 ar
    12    4    5 ar
    13    5    6 ar
    14    5   38 1
    15    6    7 ar
    16    6   39 1
    17    7    8 ar
    18    7   10 1
    19    8    9 ar
    20    8   40 1
    21    9   41 1
    22   10   11 1
    23   11   12 1
    24   11   42 1
    25   11   43 1
    26   12   16 2
    27   12   13 1
    28   13   14 2
    29   13   17 1
    30   14   15 1
    31   15   16 1
    32   17   18 2
    33   17   19 am
    34   19   44 1
    35   19   45 1
    36   20   21 1
    37   20   46 1
    38   20   56 1
    39   21   22 1
    40   21   47 1
    41   21   48 1
    42   22   23 1
    43   22   31 1
    44   22   49 1
    45   23   28 ar
    46   23   24 ar
    47   24   25 ar
    48   24   50 1
    49   25   26 ar
    50   25   30 1
    51   26   27 ar
    52   26   51 1
    53   27   28 ar
    54   27   29 1
    55   28   52 1
    56   29   53 1
    57   30   54 1
    58   31   55 1
@<TRIPOS>MOLECULE
CHEMBL157881
   65    67     0     0     0
SMALL
USER_CHARGES

@<TRIPOS>ATOM
      1 C1         -0.0187    1.5258    0.0104 C.3       1 <0>        -0.1780
      2 C2          0.0021   -0.0041    0.0020 C.3       1 <0>         0.0594
      3 C3         -1.4333   -0.5336    0.0129 C.3       1 <0>        -0.1367
      4 C4         -1.4126   -2.0635    0.0045 C.3       1 <0>        -0.1344
      5 C5         -0.6726   -2.5703    1.2440 C.3       1 <0>        -0.0949
      6 C6          0.7628   -2.0407    1.2331 C.3       1 <0>        -0.1379
      7 C7          0.7421   -0.5109    1.2415 C.3       1 <0>        -0.1352
      8 C8         -0.6518   -4.1002    1.2356 C.3       1 <0>         0.1830
      9 C9         -2.0829   -4.6290    1.1207 C.3       1 <0>        -0.1727
     10 C10         0.1711   -4.5925    0.0434 C.3       1 <0>        -0.1745
     11 N1         -0.0496   -4.5872    2.4791 N.am      1 <0>        -0.7249
     12 C11         0.0746   -5.9119    2.6940 C.2       1 <0>         0.5156
     13 O1         -0.3123   -6.7008    1.8580 O.2       1 <0>        -0.4991
     14 C12         0.6941   -6.4129    3.9732 C.3       1 <0>        -0.1245
     15 Br1         0.7207   -8.3787    3.9624 Br        1 <0>        -0.0894
     16 N2          0.6897   -0.4778   -1.2066 N.4       1 <0>        -0.5000
     17 C13        -0.0208    0.0088   -2.3967 C.3       1 <0>        -0.0534
     18 C14         0.6953   -0.4846   -3.6555 C.3       1 <0>         0.0876
     19 C15         0.0302    0.1233   -4.8920 C.3       1 <0>         0.0303
     20 O2          0.7689   -0.2434   -6.0590 O.3       1 <0>        -0.2964
     21 C16         0.3083    0.2183   -7.2511 C.ar      1 <0>         0.1688
     22 C17        -0.8230    1.0100   -7.3000 C.ar      1 <0>        -0.2423
     23 C18        -1.2947    1.4830   -8.5161 C.ar      1 <0>        -0.0618
     24 C19        -0.6464    1.1725   -9.6913 C.ar      1 <0>        -0.1566
     25 C20         0.4953    0.3767   -9.6676 C.ar      1 <0>         0.1321
     26 C21         0.9803   -0.1001   -8.4374 C.ar      1 <0>        -0.1319
     27 C22         2.1765   -0.8860   -8.7496 C.2       1 <0>        -0.1882
     28 C23         2.3413   -0.8375  -10.0807 C.2       1 <0>         0.0491
     29 N3          1.3406   -0.0939  -10.6473 N.pl3     1 <0>        -0.5917
     30 H1          1.2473    0.0835  -11.5964 H         1 <0>         0.4218
     31 O3          0.6132   -1.9097   -3.7226 O.3       1 <0>        -0.5415
     32 H2          1.0039    1.9031    0.0027 H         1 <0>         0.0846
     33 H3         -0.5459    1.8868   -0.8726 H         1 <0>         0.0828
     34 H4         -0.5289    1.8773    0.9072 H         1 <0>         0.1077
     35 H5         -1.9435   -0.1821    0.9097 H         1 <0>         0.1143
     36 H6         -1.9605   -0.1726   -0.8702 H         1 <0>         0.0912
     37 H7         -2.4352   -2.4408    0.0122 H         1 <0>         0.1022
     38 H8         -0.9024   -2.4150   -0.8923 H         1 <0>         0.0645
     39 H9         -1.1828   -2.2188    2.1408 H         1 <0>         0.0946
     40 H10         1.2900   -2.4018    2.1162 H         1 <0>         0.0932
     41 H11         1.2730   -2.3923    0.3363 H         1 <0>         0.0671
     42 H12         1.7647   -0.1336    1.2338 H         1 <0>         0.0926
     43 H13         0.2319   -0.1594    2.1383 H         1 <0>         0.1141
     44 H14        -2.5310   -4.2666    0.1955 H         1 <0>         0.0672
     45 H15        -2.0681   -5.7189    1.1147 H         1 <0>         0.0854
     46 H16        -2.6692   -4.2782    1.9700 H         1 <0>         0.0591
     47 H17         1.1906   -4.2157    0.1252 H         1 <0>         0.0574
     48 H18         0.1859   -5.6824    0.0374 H         1 <0>         0.0879
     49 H19        -0.2770   -4.2301   -0.8818 H         1 <0>         0.0635
     50 H20         0.2598   -3.9563    3.1478 H         1 <0>         0.4002
     51 H21         1.7136   -6.0362    4.0550 H         1 <0>         0.1269
     52 H22         0.1078   -6.0622    4.8225 H         1 <0>         0.1279
     53 H23         1.6363   -0.1286   -1.2138 H         1 <0>         0.4276
     54 H24        -1.0434   -0.3685   -2.3890 H         1 <0>         0.1420
     55 H25        -0.0356    1.0987   -2.3907 H         1 <0>         0.1497
     56 H26         1.7419   -0.1822   -3.6202 H         1 <0>         0.1340
     57 H27        -0.9905   -0.2498   -4.9760 H         1 <0>         0.0769
     58 H28         0.0137    1.2092   -4.7988 H         1 <0>         0.0812
     59 H29        -1.3428    1.2616   -6.3874 H         1 <0>         0.1238
     60 H30        -2.1800    2.1010   -8.5417 H         1 <0>         0.1311
     61 H31        -1.0243    1.5464  -10.6313 H         1 <0>         0.1259
     62 H32         2.8065   -1.4054   -8.0427 H         1 <0>         0.1483
     63 H33         3.1391   -1.3209  -10.6249 H         1 <0>         0.1755
     64 H34        -0.2911   -2.2504   -3.7567 H         1 <0>         0.3889
     65 H35         0.7033   -1.4867   -1.2121 H         1 <0>         0.4288
@<TRIPOS>BOND
     1    1    2 1
     2    1   32 1
     3    1   33 1
     4    1   34 1
     5    2    7 1
     6    2    3 1
     7    2   16 1
     8    3    4 1
     9    3   35 1
    10    3   36 1
    11    4    5 1
    12    4   37 1
    13    4   38 1
    14    5    6 1
    15    5    8 1
    16    5   39 1
    17    6    7 1
    18    6   40 1
    19    6   41 1
    20    7   42 1
    21    7   43 1
    22    8    9 1
    23    8   10 1
    24    8   11 1
    25    9   44 1
    26    9   45 1
    27    9   46 1
    28   10   47 1
    29   10   48 1
    30   10   49 1
    31   11   12 am
    32   11   50 1
    33   12   13 2
    34   12   14 1
    35   14   15 1
    36   14   51 1
    37   14   52 1
    38   16   17 1
    39   16   53 1
    40   16   65 1
    41   17   18 1
    42   17   54 1
    43   17   55 1
    44   18   19 1
    45   18   31 1
    46   18   56 1
    47   19   20 1
    48   19   57 1
    49   19   58 1
    50   20   21 1
    51   21   26 ar
    52   21   22 ar
    53   22   23 ar
    54   22   59 1
    55   23   24 ar
    56   23   60 1
    57   24   25 ar
    58   24   61 1
    59   25   29 1
    60   25   26 ar
    61   26   27 1
    62   27   28 2
    63   27   62 1
    64   28   29 1
    65   28   63 1
    66   29   30 1
    67   31   64 1
@<TRIPOS>MOLECULE
CHEMBL157881
   65    67     0     0     0
SMALL
USER_CHARGES

@<TRIPOS>ATOM
      1 C1         -0.0187    1.5258    0.0104 C.3       1 <0>        -0.1775
      2 C2          0.0021   -0.0041    0.0020 C.3       1 <0>         0.0596
      3 C3         -1.4333   -0.5336    0.0129 C.3       1 <0>        -0.1369
      4 C4         -1.4126   -2.0635    0.0045 C.3       1 <0>        -0.1341
      5 C5         -0.6726   -2.5703    1.2440 C.3       1 <0>        -0.0954
      6 C6          0.7628   -2.0407    1.2331 C.3       1 <0>        -0.1374
      7 C7          0.7421   -0.5109    1.2415 C.3       1 <0>        -0.1349
      8 C8         -0.6518   -4.1002    1.2356 C.3       1 <0>         0.1831
      9 C9         -2.0829   -4.6290    1.1207 C.3       1 <0>        -0.1730
     10 C10         0.1711   -4.5925    0.0434 C.3       1 <0>        -0.1759
     11 N1         -0.0496   -4.5872    2.4791 N.am      1 <0>        -0.7248
     12 C11         0.0746   -5.9119    2.6940 C.2       1 <0>         0.5156
     13 O1         -0.3123   -6.7008    1.8580 O.2       1 <0>        -0.4992
     14 C12         0.6941   -6.4129    3.9732 C.3       1 <0>        -0.1245
     15 Br1         0.7207   -8.3787    3.9624 Br        1 <0>        -0.0894
     16 N2          0.6897   -0.4778   -1.2066 N.4       1 <0>        -0.4990
     17 C13        -0.0208    0.0088   -2.3967 C.3       1 <0>        -0.0534
     18 C14         0.6953   -0.4846   -3.6555 C.3       1 <0>         0.0876
     19 C15        -0.0447    0.0222   -4.8950 C.3       1 <0>         0.0303
     20 O2          0.5543   -0.5330   -6.0676 O.3       1 <0>        -0.2964
     21 C16         0.0124   -0.1810   -7.2629 C.ar      1 <0>         0.1688
     22 C17        -1.0656    0.6819   -7.3106 C.ar      1 <0>        -0.2423
     23 C18        -1.6202    1.0430   -8.5301 C.ar      1 <0>        -0.0618
     24 C19        -1.1082    0.5492   -9.7098 C.ar      1 <0>        -0.1566
     25 C20        -0.0227   -0.3216   -9.6875 C.ar      1 <0>         0.1321
     26 C21         0.5463   -0.6858   -8.4548 C.ar      1 <0>        -0.1319
     27 C22         1.6545   -1.5903   -8.7704 C.2       1 <0>        -0.1882
     28 C23         1.6942   -1.7106  -10.1065 C.2       1 <0>         0.0492
     29 N3          0.6935   -0.9657  -10.6714 N.pl3     1 <0>        -0.5917
     30 H1          0.5215   -0.8943  -11.6234 H         1 <0>         0.4218
     31 O3          2.0359    0.0100   -3.6657 O.3       1 <0>        -0.5424
     32 H2          1.0039    1.9031    0.0027 H         1 <0>         0.0844
     33 H3         -0.5459    1.8868   -0.8726 H         1 <0>         0.0823
     34 H4         -0.5289    1.8773    0.9072 H         1 <0>         0.1077
     35 H5         -1.9435   -0.1821    0.9097 H         1 <0>         0.1145
     36 H6         -1.9605   -0.1726   -0.8702 H         1 <0>         0.0919
     37 H7         -2.4352   -2.4408    0.0122 H         1 <0>         0.1028
     38 H8         -0.9024   -2.4150   -0.8923 H         1 <0>         0.0631
     39 H9         -1.1828   -2.2188    2.1408 H         1 <0>         0.0953
     40 H10         1.2900   -2.4018    2.1162 H         1 <0>         0.0934
     41 H11         1.2730   -2.3923    0.3363 H         1 <0>         0.0662
     42 H12         1.7647   -0.1336    1.2338 H         1 <0>         0.0927
     43 H13         0.2319   -0.1594    2.1383 H         1 <0>         0.1142
     44 H14        -2.5310   -4.2666    0.1955 H         1 <0>         0.0674
     45 H15        -2.0681   -5.7189    1.1147 H         1 <0>         0.0854
     46 H16        -2.6692   -4.2782    1.9700 H         1 <0>         0.0594
     47 H17         1.1906   -4.2157    0.1252 H         1 <0>         0.0577
     48 H18         0.1859   -5.6824    0.0374 H         1 <0>         0.0886
     49 H19        -0.2770   -4.2301   -0.8818 H         1 <0>         0.0625
     50 H20         0.2598   -3.9563    3.1478 H         1 <0>         0.4004
     51 H21         1.7136   -6.0362    4.0550 H         1 <0>         0.1270
     52 H22         0.1078   -6.0622    4.8225 H         1 <0>         0.1280
     53 H23         1.6363   -0.1286   -1.2138 H         1 <0>         0.4309
     54 H24        -1.0434   -0.3685   -2.3890 H         1 <0>         0.1482
     55 H25        -0.0356    1.0987   -2.3907 H         1 <0>         0.1437
     56 H26         0.7101   -1.5745   -3.6615 H         1 <0>         0.1336
     57 H27        -1.0905   -0.2806   -4.8430 H         1 <0>         0.0815
     58 H28         0.0171    1.1097   -4.9357 H         1 <0>         0.0770
     59 H29        -1.4788    1.0769   -6.3943 H         1 <0>         0.1237
     60 H30        -2.4627    1.7183   -8.5547 H         1 <0>         0.1311
     61 H31        -1.5496    0.8376  -10.6524 H         1 <0>         0.1259
     62 H32         2.3147   -2.0689   -8.0623 H         1 <0>         0.1484
     63 H33         2.4039   -2.3128  -10.6542 H         1 <0>         0.1755
     64 H34         2.0992    0.9749   -3.6611 H         1 <0>         0.3892
     65 H35         0.7033   -1.4867   -1.2121 H         1 <0>         0.4250
@<TRIPOS>BOND
     1    1    2 1
     2    1   32 1
     3    1   33 1
     4    1   34 1
     5    2    7 1
     6    2    3 1
     7    2   16 1
     8    3    4 1
     9    3   35 1
    10    3   36 1
    11    4    5 1
    12    4   37 1
    13    4   38 1
    14    5    6 1
    15    5    8 1
    16    5   39 1
    17    6    7 1
    18    6   40 1
    19    6   41 1
    20    7   42 1
    21    7   43 1
    22    8    9 1
    23    8   10 1
    24    8   11 1
    25    9   44 1
    26    9   45 1
    27    9   46 1
    28   10   47 1
    29   10   48 1
    30   10   49 1
    31   11   12 am
    32   11   50 1
    33   12   13 2
    34   12   14 1
    35   14   15 1
    36   14   51 1
    37   14   52 1
    38   16   17 1
    39   16   53 1
    40   16   65 1
    41   17   18 1
    42   17   54 1
    43   17   55 1
    44   18   19 1
    45   18   31 1
    46   18   56 1
    47   19   20 1
    48   19   57 1
    49   19   58 1
    50   20   21 1
    51   21   26 ar
    52   21   22 ar
    53   22   23 ar
    54   22   59 1
    55   23   24 ar
    56   23   60 1
    57   24   25 ar
    58   24   61 1
    59   25   29 1
    60   25   26 ar
    61   26   27 1
    62   27   28 2
    63   27   62 1
    64   28   29 1
    65   28   63 1
    66   29   30 1
    67   31   64 1
@<TRIPOS>MOLECULE
CHEMBL1221541
   47    49     0     0     0
SMALL
USER_CHARGES

@<TRIPOS>ATOM
      1 C1         -0.0187    1.5258    0.0104 C.3       1 <0>        -0.1846
      2 C2          0.0021   -0.0041    0.0020 C.3       1 <0>         0.0259
      3 H1         -1.0205   -0.3814    0.0098 H         1 <0>         0.1379
      4 C3          0.7421   -0.5109    1.2415 C.3       1 <0>        -0.1067
      5 C4          0.7628   -2.0407    1.2331 C.3       1 <0>        -0.1326
      6 C5          1.5028   -2.5476    2.4727 C.3       1 <0>        -0.1186
      7 C6          0.7867   -2.0542    3.7315 C.3       1 <0>        -0.1258
      8 C7          0.7659   -0.5243    3.7399 C.3       1 <0>        -0.1214
      9 C8          0.0259   -0.0175    2.5003 C.3       1 <0>        -0.1126
     10 N1          0.6897   -0.4778   -1.2066 N.4       1 <0>        -0.5043
     11 C9         -0.0856   -0.0931   -2.3936 C.3       1 <0>        -0.0484
     12 C10         0.6305   -0.5866   -3.6524 C.3       1 <0>         0.1630
     13 H2          0.7239   -1.6719   -3.6155 H         1 <0>         0.1146
     14 C11        -0.1648   -0.1919   -4.8701 C.ar      1 <0>        -0.2333
     15 C12         0.1454    0.9693   -5.5566 C.ar      1 <0>        -0.0378
     16 C13        -0.5980    1.3121   -6.6725 C.ar      1 <0>        -0.2397
     17 C14        -1.6380    0.5187   -7.1094 C.ar      1 <0>         0.3003
     18 C15        -1.9745   -0.6681   -6.4291 C.ar      1 <0>        -0.0293
     19 C16        -1.1977   -0.9865   -5.3072 C.ar      1 <0>        -0.0472
     20 S1         -1.9059   -2.5157   -4.7451 S.3       1 <0>        -0.1200
     21 C17        -3.1710   -2.6740   -5.9950 C.2       1 <0>         0.5379
     22 O1         -3.9998   -3.5547   -6.1333 O.2       1 <0>        -0.4758
     23 N2         -2.9844   -1.5664   -6.7396 N.am      1 <0>        -0.6197
     24 H3         -3.5541   -1.4021   -7.5073 H         1 <0>         0.4154
     25 O2         -2.3473    0.8866   -8.2095 O.3       1 <0>        -0.6864
     26 O3          1.9312    0.0013   -3.7219 O.3       1 <0>        -0.5545
     27 H4          1.0039    1.9031    0.0027 H         1 <0>         0.0810
     28 H5         -0.5459    1.8868   -0.8726 H         1 <0>         0.0842
     29 H6         -0.5289    1.8773    0.9072 H         1 <0>         0.1052
     30 H7          1.7647   -0.1336    1.2338 H         1 <0>         0.0944
     31 H8         -0.2598   -2.4180    1.2409 H         1 <0>         0.0794
     32 H9          1.2730   -2.3923    0.3363 H         1 <0>         0.0590
     33 H10         1.5176   -3.6375    2.4667 H         1 <0>         0.0720
     34 H11         2.5254   -2.1703    2.4649 H         1 <0>         0.0669
     35 H12        -0.2359   -2.4314    3.7392 H         1 <0>         0.0658
     36 H13         1.3139   -2.4152    4.6145 H         1 <0>         0.0687
     37 H14         0.2557   -0.1728    4.6367 H         1 <0>         0.0715
     38 H15         1.7885   -0.1470    3.7321 H         1 <0>         0.0659
     39 H16         0.0111    1.0724    2.5063 H         1 <0>         0.0758
     40 H17        -0.9967   -0.3948    2.5081 H         1 <0>         0.0734
     41 H18         1.6080   -0.0627   -1.2556 H         1 <0>         0.4258
     42 H19        -1.0777   -0.5415   -2.3406 H         1 <0>         0.1399
     43 H20        -0.1790    0.9922   -2.4305 H         1 <0>         0.1375
     44 H21         0.9570    1.6002   -5.2254 H         1 <0>         0.1129
     45 H22        -0.3595    2.2175   -7.2109 H         1 <0>         0.1174
     46 H23         1.9246    0.9676   -3.7575 H         1 <0>         0.3833
     47 H24         0.7761   -1.4825   -1.1724 H         1 <0>         0.4238
@<TRIPOS>BOND
     1    1    2 1
     2    1   27 1
     3    1   28 1
     4    1   29 1
     5    2    3 1
     6    2    4 1
     7    2   10 1
     8    4    9 1
     9    4    5 1
    10    4   30 1
    11    5    6 1
    12    5   31 1
    13    5   32 1
    14    6    7 1
    15    6   33 1
    16    6   34 1
    17    7    8 1
    18    7   35 1
    19    7   36 1
    20    8    9 1
    21    8   37 1
    22    8   38 1
    23    9   39 1
    24    9   40 1
    25   10   11 1
    26   10   41 1
    27   10   47 1
    28   11   12 1
    29   11   42 1
    30   11   43 1
    31   12   13 1
    32   12   14 1
    33   12   26 1
    34   14   19 ar
    35   14   15 ar
    36   15   16 ar
    37   15   44 1
    38   16   17 ar
    39   16   45 1
    40   17   18 ar
    41   17   25 1
    42   18   23 1
    43   18   19 ar
    44   19   20 1
    45   20   21 1
    46   21   22 2
    47   21   23 am
    48   23   24 1
    49   26   46 1
@<TRIPOS>MOLECULE
CHEMBL104193
   74    77     0     0     0
SMALL
USER_CHARGES

@<TRIPOS>ATOM
      1 C1         21.9233   -7.2994   13.6135 C.ar      1 <0>        -0.1171
      2 C2         21.4993   -8.2153   12.6689 C.ar      1 <0>        -0.1180
      3 C3         20.8815   -7.7791   11.5118 C.ar      1 <0>        -0.1144
      4 C4         20.6873   -6.4270   11.2994 C.ar      1 <0>        -0.0890
      5 C5         21.1105   -5.5112   12.2444 C.ar      1 <0>        -0.1125
      6 C6         21.7295   -5.9473   13.4009 C.ar      1 <0>        -0.1160
      7 C7         20.0147   -5.9514   10.0375 C.3       1 <0>        -0.0899
      8 C8         18.5036   -5.8722   10.2637 C.3       1 <0>         0.1411
      9 N1         17.8498   -5.4099    9.0369 N.am      1 <0>        -0.7376
     10 C9         16.5105   -5.2633    9.0012 C.2       1 <0>         0.7033
     11 O1         15.8449   -5.5149    9.9872 O.2       1 <0>        -0.5643
     12 N2         15.9090   -4.8380    7.8726 N.am      1 <0>        -0.6899
     13 C10        14.5125   -4.7792    7.8035 C.ar      1 <0>         0.2290
     14 C11        13.8616   -5.0767    6.6134 C.ar      1 <0>        -0.1712
     15 C12        12.4832   -5.0182    6.5486 C.ar      1 <0>         0.0028
     16 C13        11.7514   -4.6638    7.6671 C.ar      1 <0>        -0.6960
     17 C14        12.3966   -4.3665    8.8534 C.ar      1 <0>         0.0055
     18 C15        13.7744   -4.4287    8.9264 C.ar      1 <0>        -0.1395
     19 S1          9.9931   -4.5903    7.5802 S.o2      1 <0>         2.6897
     20 O2          9.5801   -3.6143    8.5267 O.2       1 <0>        -0.9400
     21 O3          9.6578   -4.5047    6.2020 O.2       1 <0>        -0.9468
     22 N3          9.4150   -6.0459    8.1184 N.pl3     1 <0>        -1.0599
     23 C16         9.7170   -7.2180    7.4215 C.ar      1 <0>         0.1681
     24 C17         9.6164   -7.2499    6.0364 C.ar      1 <0>        -0.1512
     25 C18         9.9162   -8.4105    5.3504 C.ar      1 <0>        -0.0830
     26 C19        10.3157   -9.5400    6.0408 C.ar      1 <0>        -0.1214
     27 C20        10.4169   -9.5117    7.4196 C.ar      1 <0>        -0.0879
     28 C21        10.1241   -8.3529    8.1114 C.ar      1 <0>        -0.1256
     29 C22        10.6411  -10.8049    5.2889 C.3       1 <0>        -0.0990
     30 C23        12.1270  -10.8136    4.9244 C.3       1 <0>        -0.0086
     31 N4         12.4441  -12.0466    4.1914 N.4       1 <0>        -0.5056
     32 C24        13.8708  -12.0549    3.8414 C.3       1 <0>        -0.0426
     33 C25        14.2011  -13.3391    3.0780 C.3       1 <0>         0.1414
     34 H1         13.6034  -13.3846    2.1677 H         1 <0>         0.1342
     35 C26        15.6647  -13.3477    2.7190 C.ar      1 <0>        -0.2001
     36 C27        16.0861  -12.8917    1.4791 C.ar      1 <0>        -0.0548
     37 C28        17.4422  -12.9182    1.1923 C.ar      1 <0>        -0.1641
     38 C29        18.3229  -13.3949    2.1450 C.ar      1 <0>         0.1222
     39 N5         17.8862  -13.8211    3.3139 N.ar      1 <0>        -0.4749
     40 C30        16.6043  -13.8047    3.6233 C.ar      1 <0>         0.1171
     41 O4         13.9054  -14.4707    3.8990 O.3       1 <0>        -0.5457
     42 H2         22.4019   -7.6405   14.5196 H         1 <0>         0.1243
     43 H3         21.6510   -9.2716   12.8348 H         1 <0>         0.1236
     44 H4         20.5509   -8.4946   10.7734 H         1 <0>         0.1202
     45 H5         20.9591   -4.4548   12.0784 H         1 <0>         0.1228
     46 H6         22.0605   -5.2318   14.1391 H         1 <0>         0.1251
     47 H7         20.3947   -4.9647    9.7730 H         1 <0>         0.0816
     48 H8         20.2248   -6.6506    9.2281 H         1 <0>         0.0794
     49 H9         18.1236   -6.8590   10.5282 H         1 <0>         0.0720
     50 H10        18.2936   -5.1730   11.0731 H         1 <0>         0.0742
     51 H11        18.3808   -5.2092    8.2504 H         1 <0>         0.4001
     52 H12        16.4440   -4.5726    7.1083 H         1 <0>         0.4123
     53 H13        14.4327   -5.3532    5.7395 H         1 <0>         0.1349
     54 H14        11.9765   -5.2491    5.6232 H         1 <0>         0.1437
     55 H15        11.8222   -4.0897    9.7252 H         1 <0>         0.1444
     56 H16        14.2775   -4.2011    9.8545 H         1 <0>         0.1537
     57 H17         8.8667   -6.0844    8.9176 H         1 <0>         0.4323
     58 H18         9.3037   -6.3683    5.4966 H         1 <0>         0.1640
     59 H19         9.8381   -8.4359    4.2735 H         1 <0>         0.1324
     60 H20        10.7292  -10.3957    7.9558 H         1 <0>         0.1296
     61 H21        10.2077   -8.3301    9.1879 H         1 <0>         0.1358
     62 H22        10.4155  -11.6681    5.9151 H         1 <0>         0.0972
     63 H23        10.0433  -10.8504    4.3785 H         1 <0>         0.0980
     64 H24        12.3525   -9.9504    4.2981 H         1 <0>         0.1344
     65 H25        12.7247  -10.7681    5.8347 H         1 <0>         0.1332
     66 H26        12.2353  -12.8456    4.7711 H         1 <0>         0.4328
     67 H27        14.0963  -11.1918    3.2152 H         1 <0>         0.1445
     68 H28        14.4685  -12.0095    4.7518 H         1 <0>         0.1371
     69 H29        15.3748  -12.5249    0.7539 H         1 <0>         0.1413
     70 H30        17.8058  -12.5711    0.2364 H         1 <0>         0.1472
     71 H31        19.3809  -13.4189    1.9294 H         1 <0>         0.1670
     72 H32        16.2846  -14.1571    4.5929 H         1 <0>         0.1528
     73 H33        14.4025  -14.4958    4.7281 H         1 <0>         0.3899
     74 H34        11.8908  -12.0887    3.3487 H         1 <0>         0.4301
@<TRIPOS>BOND
     1    1    6 ar
     2    1    2 ar
     3    1   42 1
     4    2    3 ar
     5    2   43 1
     6    3    4 ar
     7    3   44 1
     8    4    5 ar
     9    4    7 1
    10    5    6 ar
    11    5   45 1
    12    6   46 1
    13    7    8 1
    14    7   47 1
    15    7   48 1
    16    8    9 1
    17    8   49 1
    18    8   50 1
    19    9   10 am
    20    9   51 1
    21   10   11 2
    22   10   12 am
    23   12   13 1
    24   12   52 1
    25   13   18 ar
    26   13   14 ar
    27   14   15 ar
    28   14   53 1
    29   15   16 ar
    30   15   54 1
    31   16   17 ar
    32   16   19 1
    33   17   18 ar
    34   17   55 1
    35   18   56 1
    36   19   20 2
    37   19   21 2
    38   19   22 1
    39   22   23 1
    40   22   57 1
    41   23   28 ar
    42   23   24 ar
    43   24   25 ar
    44   24   58 1
    45   25   26 ar
    46   25   59 1
    47   26   27 ar
    48   26   29 1
    49   27   28 ar
    50   27   60 1
    51   28   61 1
    52   29   30 1
    53   29   62 1
    54   29   63 1
    55   30   31 1
    56   30   64 1
    57   30   65 1
    58   31   32 1
    59   31   66 1
    60   31   74 1
    61   32   33 1
    62   32   67 1
    63   32   68 1
    64   33   34 1
    65   33   35 1
    66   33   41 1
    67   35   40 ar
    68   35   36 ar
    69   36   37 ar
    70   36   69 1
    71   37   38 ar
    72   37   70 1
    73   38   39 ar
    74   38   71 1
    75   39   40 ar
    76   40   72 1
    77   41   73 1
@<TRIPOS>MOLECULE
CHEMBL56308
   61    64     0     0     0
SMALL
USER_CHARGES

@<TRIPOS>ATOM
      1 C1          0.1478    2.4326   -7.5283 C.3       1 <0>        -0.1545
      2 C2          0.2905    1.6357   -6.2301 C.3       1 <0>        -0.1257
      3 C3          0.8655    0.2525   -6.5414 C.3       1 <0>        -0.1211
      4 C4          1.0082   -0.5445   -5.2432 C.3       1 <0>        -0.1208
      5 C5          1.5833   -1.9277   -5.5545 C.3       1 <0>        -0.1134
      6 C6          1.7260   -2.7247   -4.2562 C.3       1 <0>        -0.0822
      7 C7          2.2924   -4.0871   -4.5629 C.ar      1 <0>        -0.0621
      8 C8          1.4425   -5.1397   -4.8506 C.ar      1 <0>        -0.1214
      9 C9          1.9580   -6.3914   -5.1325 C.ar      1 <0>        -0.0973
     10 C10         3.3241   -6.5946   -5.1276 C.ar      1 <0>        -0.1347
     11 C11         4.1805   -5.5397   -4.8390 C.ar      1 <0>         0.1601
     12 C12         3.6593   -4.2818   -4.5617 C.ar      1 <0>        -0.1257
     13 N1          5.5629   -5.7417   -4.8328 N.pl3     1 <0>        -0.5706
     14 C13         6.4427   -5.4920   -3.6879 C.3       1 <0>         0.1161
     15 C14         7.8532   -5.8624   -4.1751 C.3       1 <0>        -0.0829
     16 C15         7.6557   -6.3083   -5.6064 C.ar      1 <0>        -0.1848
     17 C16         6.3069   -6.2168   -5.9145 C.ar      1 <0>         0.2494
     18 C17         5.8770   -6.5840   -7.1914 C.ar      1 <0>        -0.1887
     19 C18         6.7836   -7.0341   -8.1274 C.ar      1 <0>         0.0287
     20 C19         8.1260   -7.1252   -7.8087 C.ar      1 <0>        -0.7209
     21 C20         8.5608   -6.7552   -6.5492 C.ar      1 <0>         0.0399
     22 S1          9.2812   -7.7015   -9.0079 S.o2      1 <0>         2.6953
     23 O1         10.3375   -8.3227   -8.2885 O.2       1 <0>        -0.9540
     24 O2          8.5291   -8.3867   -9.9999 O.2       1 <0>        -0.9512
     25 N2          9.9300   -6.3672   -9.7434 N.pl3     1 <0>        -1.0586
     26 C21         9.1100   -5.5048  -10.4746 C.ar      1 <0>         0.1439
     27 C22         8.1894   -6.0193  -11.3787 C.ar      1 <0>        -0.1519
     28 C23         7.3798   -5.1637  -12.0998 C.ar      1 <0>        -0.0970
     29 C24         7.4852   -3.7963  -11.9228 C.ar      1 <0>        -0.1272
     30 C25         8.4006   -3.2808  -11.0237 C.ar      1 <0>        -0.1032
     31 C26         9.2093   -4.1309  -10.2952 C.ar      1 <0>        -0.1290
     32 H1          1.1259    2.5428   -7.9964 H         1 <0>         0.0533
     33 H2         -0.5224    1.9048   -8.2069 H         1 <0>         0.0536
     34 H3         -0.2619    3.4181   -7.3065 H         1 <0>         0.0538
     35 H4          0.9606    2.1635   -5.5516 H         1 <0>         0.0603
     36 H5         -0.6877    1.5255   -5.7620 H         1 <0>         0.0607
     37 H6          0.1954   -0.2753   -7.2199 H         1 <0>         0.0614
     38 H7          1.8437    0.3626   -7.0095 H         1 <0>         0.0607
     39 H8          1.6784   -0.0167   -4.5646 H         1 <0>         0.0617
     40 H9          0.0300   -0.6546   -4.7751 H         1 <0>         0.0627
     41 H10         0.9131   -2.4555   -6.2330 H         1 <0>         0.0644
     42 H11         2.5615   -1.8176   -6.0226 H         1 <0>         0.0624
     43 H12         2.3961   -2.1969   -3.5777 H         1 <0>         0.0725
     44 H13         0.7478   -2.8348   -3.7881 H         1 <0>         0.0756
     45 H14         0.3739   -4.9837   -4.8548 H         1 <0>         0.1261
     46 H15         1.2915   -7.2113   -5.3564 H         1 <0>         0.1290
     47 H16         3.7260   -7.5726   -5.3475 H         1 <0>         0.1245
     48 H17         4.3225   -3.4584   -4.3413 H         1 <0>         0.1234
     49 H18         6.4048   -4.4402   -3.4042 H         1 <0>         0.0767
     50 H19         6.1559   -6.1221   -2.8460 H         1 <0>         0.0781
     51 H20         8.5099   -4.9934   -4.1346 H         1 <0>         0.0915
     52 H21         8.2608   -6.6766   -3.5759 H         1 <0>         0.0927
     53 H22         4.8298   -6.5155   -7.4466 H         1 <0>         0.1290
     54 H23         6.4441   -7.3167   -9.1129 H         1 <0>         0.1429
     55 H24         9.6088   -6.8267   -6.2985 H         1 <0>         0.1380
     56 H25        10.8796   -6.1846   -9.6665 H         1 <0>         0.4263
     57 H26         8.1071   -7.0871  -11.5179 H         1 <0>         0.1559
     58 H27         6.6638   -5.5630  -12.8028 H         1 <0>         0.1299
     59 H28         6.8514   -3.1294  -12.4885 H         1 <0>         0.1250
     60 H29         8.4804   -2.2123  -10.8879 H         1 <0>         0.1263
     61 H30         9.9209   -3.7278   -9.5898 H         1 <0>         0.1270
@<TRIPOS>BOND
     1    1    2 1
     2    1   32 1
     3    1   33 1
     4    1   34 1
     5    2    3 1
     6    2   35 1
     7    2   36 1
     8    3    4 1
     9    3   37 1
    10    3   38 1
    11    4    5 1
    12    4   39 1
    13    4   40 1
    14    5    6 1
    15    5   41 1
    16    5   42 1
    17    6    7 1
    18    6   43 1
    19    6   44 1
    20    7   12 ar
    21    7    8 ar
    22    8    9 ar
    23    8   45 1
    24    9   10 ar
    25    9   46 1
    26   10   11 ar
    27   10   47 1
    28   11   12 ar
    29   11   13 1
    30   12   48 1
    31   13   17 1
    32   13   14 1
    33   14   15 1
    34   14   49 1
    35   14   50 1
    36   15   16 1
    37   15   51 1
    38   15   52 1
    39   16   21 ar
    40   16   17 ar
    41   17   18 ar
    42   18   19 ar
    43   18   53 1
    44   19   20 ar
    45   19   54 1
    46   20   21 ar
    47   20   22 1
    48   21   55 1
    49   22   23 2
    50   22   24 2
    51   22   25 1
    52   25   26 1
    53   25   56 1
    54   26   31 ar
    55   26   27 ar
    56   27   28 ar
    57   27   57 1
    58   28   29 ar
    59   28   58 1
    60   29   30 ar
    61   29   59 1
    62   30   31 ar
    63   30   60 1
    64   31   61 1
@<TRIPOS>MOLECULE
CHEMBL101740
   43    45     0     0     0
SMALL
USER_CHARGES

@<TRIPOS>ATOM
      1 C1         -0.0178    1.4648    0.0101 C.3       1 <0>        -0.0558
      2 N1          0.0021   -0.0041    0.0020 N.4       1 <0>        -0.3873
      3 C2          0.6897   -0.4778   -1.2066 C.3       1 <0>        -0.0474
      4 C3          0.7126   -0.4907    1.1921 C.3       1 <0>        -0.0076
      5 C4         -0.0711   -0.1034    2.4478 C.3       1 <0>        -0.1233
      6 C5          0.6578   -0.6026    3.6687 C.2       1 <0>        -0.1603
      7 C6          0.9869    0.2498    4.6469 C.2       1 <0>         0.0007
      8 C7          1.7090   -0.2510    5.8404 C.ar      1 <0>        -0.0503
      9 C8          2.7507   -1.1606    5.6006 C.ar      1 <0>        -0.1071
     10 C9          3.4786   -1.6867    6.6423 C.ar      1 <0>        -0.1150
     11 C10         3.1773   -1.3124    7.9400 C.ar      1 <0>        -0.1025
     12 C11         2.1575   -0.4193    8.1800 C.ar      1 <0>        -0.1174
     13 C12         1.4095    0.1263    7.1358 C.ar      1 <0>        -0.1008
     14 C13         0.3358    1.0943    7.5587 C.3       1 <0>         0.1159
     15 O1         -0.5748    1.4438    6.5480 O.3       1 <0>        -0.3234
     16 C14        -0.1903    2.2131    5.5112 C.ar      1 <0>         0.1199
     17 C15         0.6298    1.6819    4.5188 C.ar      1 <0>        -0.0929
     18 C16         1.0795    2.4600    3.4611 C.ar      1 <0>        -0.1007
     19 C17         0.6870    3.7845    3.3850 C.ar      1 <0>        -0.1290
     20 C18        -0.1447    4.3182    4.3534 C.ar      1 <0>        -0.0936
     21 C19        -0.5926    3.5387    5.4214 C.ar      1 <0>        -0.1252
     22 H1          1.0047    1.8421    0.0024 H         1 <0>         0.1228
     23 H2         -0.5450    1.8259   -0.8730 H         1 <0>         0.1262
     24 H3         -0.5280    1.8163    0.9069 H         1 <0>         0.1244
     25 H4          1.7123   -0.1005   -1.2143 H         1 <0>         0.1218
     26 H5          0.7044   -1.5677   -1.2126 H         1 <0>         0.1237
     27 H6          0.1625   -0.1167   -2.0897 H         1 <0>         0.1249
     28 H7          0.8051   -1.5756    1.1418 H         1 <0>         0.1332
     29 H8          1.7055   -0.0428    1.2310 H         1 <0>         0.1297
     30 H9         -0.1636    0.9815    2.4982 H         1 <0>         0.1009
     31 H10        -1.0640   -0.5514    2.4090 H         1 <0>         0.0963
     32 H11         0.9146   -1.6482    3.7545 H         1 <0>         0.1317
     33 H12         2.9831   -1.4509    4.5866 H         1 <0>         0.1235
     34 H13         4.2783   -2.3864    6.4492 H         1 <0>         0.1311
     35 H14         3.7421   -1.7213    8.7647 H         1 <0>         0.1316
     36 H15         1.9314   -0.1356    9.1973 H         1 <0>         0.1298
     37 H16        -0.2203    0.6520    8.3853 H         1 <0>         0.1233
     38 H17         0.8154    2.0042    7.9197 H         1 <0>         0.0703
     39 H18         1.7275    2.0372    2.7077 H         1 <0>         0.1246
     40 H19         1.0305    4.4028    2.5688 H         1 <0>         0.1317
     41 H20        -0.4542    5.3504    4.2816 H         1 <0>         0.1346
     42 H21        -1.2404    3.9617    6.1749 H         1 <0>         0.1395
     43 H22        -0.9445   -0.3533    0.0092 H         1 <0>         0.4275
@<TRIPOS>BOND
     1    1    2 1
     2    1   22 1
     3    1   23 1
     4    1   24 1
     5    2    3 1
     6    2    4 1
     7    2   43 1
     8    3   25 1
     9    3   26 1
    10    3   27 1
    11    4    5 1
    12    4   28 1
    13    4   29 1
    14    5    6 1
    15    5   30 1
    16    5   31 1
    17    6    7 2
    18    6   32 1
    19    7   17 1
    20    7    8 1
    21    8   13 ar
    22    8    9 ar
    23    9   10 ar
    24    9   33 1
    25   10   11 ar
    26   10   34 1
    27   11   12 ar
    28   11   35 1
    29   12   13 ar
    30   12   36 1
    31   13   14 1
    32   14   15 1
    33   14   37 1
    34   14   38 1
    35   15   16 1
    36   16   21 ar
    37   16   17 ar
    38   17   18 ar
    39   18   19 ar
    40   18   39 1
    41   19   20 ar
    42   19   40 1
    43   20   21 ar
    44   20   41 1
    45   21   42 1
@<TRIPOS>MOLECULE
CHEMBL291467
   67    70     0     0     0
SMALL
USER_CHARGES

@<TRIPOS>ATOM
      1 C1         -0.7015    1.0714   -0.5649 C.3       1 <0>        -0.1559
      2 C2         -0.6207   -0.4556   -0.5145 C.3       1 <0>        -0.1265
      3 C3          0.1489   -0.8847    0.7363 C.3       1 <0>        -0.1216
      4 C4          0.2296   -2.4117    0.7867 C.3       1 <0>        -0.1222
      5 C5          0.9992   -2.8407    2.0375 C.3       1 <0>        -0.1211
      6 C6          1.0800   -4.3678    2.0879 C.3       1 <0>        -0.1219
      7 C7          1.8495   -4.7968    3.3387 C.3       1 <0>        -0.1190
      8 C8          1.9303   -6.3238    3.3891 C.3       1 <0>        -0.1095
      9 C9          2.6883   -6.7464    4.6211 C.ar      1 <0>         0.1843
     10 C10         4.0678   -6.7979    4.5882 C.ar      1 <0>        -0.1209
     11 C11         4.7610   -7.1880    5.7262 C.ar      1 <0>         0.0189
     12 C12         4.0386   -7.5133    6.8603 C.ar      1 <0>        -0.1129
     13 C13         2.6502   -7.4390    6.8224 C.ar      1 <0>         0.4043
     14 N1          2.0256   -7.0572    5.7187 N.ar      1 <0>        -0.4581
     15 N2          1.9114   -7.7632    7.9554 N.pl3     1 <0>        -0.6021
     16 C14         1.5990   -6.8375    9.0474 C.3       1 <0>         0.1194
     17 C15         0.7721   -7.6600   10.0491 C.3       1 <0>        -0.0874
     18 C16         0.6772   -9.0344    9.4255 C.ar      1 <0>        -0.1514
     19 C17         1.3538   -9.0171    8.2155 C.ar      1 <0>         0.2086
     20 C18         1.3996  -10.1826    7.4480 C.ar      1 <0>        -0.1782
     21 C19         0.7758  -11.3303    7.8890 C.ar      1 <0>         0.0294
     22 C20         0.0999  -11.3357    9.0951 C.ar      1 <0>        -0.6929
     23 C21         0.0580  -10.1880    9.8654 C.ar      1 <0>         0.0408
     24 S1         -0.6969  -12.8044    9.6544 S.o2      1 <0>         2.6918
     25 O1         -1.7954  -12.3906   10.4554 O.2       1 <0>        -0.9433
     26 O2         -0.8563  -13.6389    8.5154 O.2       1 <0>        -0.9418
     27 N3          0.3603  -13.5804   10.6656 N.pl3     1 <0>        -1.0548
     28 C22         1.5929  -14.0234   10.1805 C.ar      1 <0>         0.1377
     29 C23         1.6613  -14.7034    8.9711 C.ar      1 <0>        -0.1537
     30 C24         2.8817  -15.1398    8.4942 C.ar      1 <0>        -0.0966
     31 C25         4.0348  -14.9008    9.2192 C.ar      1 <0>        -0.1246
     32 C26         3.9702  -14.2242   10.4235 C.ar      1 <0>        -0.1022
     33 C27         2.7538  -13.7801   10.9035 C.ar      1 <0>        -0.1280
     34 H1          0.3054    1.4876   -0.5972 H         1 <0>         0.0541
     35 H2         -1.2498    1.3771   -1.4560 H         1 <0>         0.0563
     36 H3         -1.2176    1.4374    0.3227 H         1 <0>         0.0537
     37 H4         -1.6276   -0.8718   -0.4822 H         1 <0>         0.0609
     38 H5         -0.1046   -0.8216   -1.4020 H         1 <0>         0.0615
     39 H6          1.1557   -0.4684    0.7040 H         1 <0>         0.0617
     40 H7         -0.3673   -0.5186    1.6239 H         1 <0>         0.0608
     41 H8         -0.7773   -2.8279    0.8190 H         1 <0>         0.0625
     42 H9          0.7458   -2.7777   -0.1009 H         1 <0>         0.0639
     43 H10         2.0061   -2.4245    2.0052 H         1 <0>         0.0649
     44 H11         0.4831   -2.4747    2.9251 H         1 <0>         0.0621
     45 H12         0.0731   -4.7840    2.1202 H         1 <0>         0.0687
     46 H13         1.5961   -4.7338    1.2003 H         1 <0>         0.0730
     47 H14         2.8564   -4.3806    3.3064 H         1 <0>         0.0807
     48 H15         1.3334   -4.4308    4.2262 H         1 <0>         0.0683
     49 H16         0.9234   -6.7401    3.4214 H         1 <0>         0.1024
     50 H17         2.4464   -6.6899    2.5015 H         1 <0>         0.1277
     51 H18         4.6020   -6.5378    3.6864 H         1 <0>         0.1910
     52 H19         5.8399   -7.2366    5.7259 H         1 <0>         0.1860
     53 H20         4.5458   -7.8210    7.7628 H         1 <0>         0.1872
     54 H21         2.5167   -6.4823    9.5162 H         1 <0>         0.0940
     55 H22         1.0140   -5.9966    8.6747 H         1 <0>         0.0852
     56 H23         1.2828   -7.7132   11.0106 H         1 <0>         0.1066
     57 H24        -0.2211   -7.2271   10.1684 H         1 <0>         0.1047
     58 H25         1.9256  -10.1850    6.5047 H         1 <0>         0.1255
     59 H26         0.8149  -12.2282    7.2900 H         1 <0>         0.1532
     60 H27        -0.4703  -10.1904   10.8073 H         1 <0>         0.1506
     61 H28         0.1236  -13.7272   11.5947 H         1 <0>         0.4303
     62 H29         0.7611  -14.8910    8.4047 H         1 <0>         0.1557
     63 H30         2.9357  -15.6685    7.5540 H         1 <0>         0.1316
     64 H31         4.9878  -15.2437    8.8443 H         1 <0>         0.1272
     65 H32         4.8726  -14.0392   10.9873 H         1 <0>         0.1287
     66 H33         2.7046  -13.2477   11.8419 H         1 <0>         0.1286
     67 H34         1.0568   -7.0085    5.7161 H         1 <0>         0.4421
@<TRIPOS>BOND
     1    1    2 1
     2    1   34 1
     3    1   35 1
     4    1   36 1
     5    2    3 1
     6    2   37 1
     7    2   38 1
     8    3    4 1
     9    3   39 1
    10    3   40 1
    11    4    5 1
    12    4   41 1
    13    4   42 1
    14    5    6 1
    15    5   43 1
    16    5   44 1
    17    6    7 1
    18    6   45 1
    19    6   46 1
    20    7    8 1
    21    7   47 1
    22    7   48 1
    23    8    9 1
    24    8   49 1
    25    8   50 1
    26    9   14 ar
    27    9   10 ar
    28   10   11 ar
    29   10   51 1
    30   11   12 ar
    31   11   52 1
    32   12   13 ar
    33   12   53 1
    34   13   14 ar
    35   13   15 1
    36   14   67 1
    37   15   19 1
    38   15   16 1
    39   16   17 1
    40   16   54 1
    41   16   55 1
    42   17   18 1
    43   17   56 1
    44   17   57 1
    45   18   23 ar
    46   18   19 ar
    47   19   20 ar
    48   20   21 ar
    49   20   58 1
    50   21   22 ar
    51   21   59 1
    52   22   23 ar
    53   22   24 1
    54   23   60 1
    55   24   25 2
    56   24   26 2
    57   24   27 1
    58   27   28 1
    59   27   61 1
    60   28   33 ar
    61   28   29 ar
    62   29   30 ar
    63   29   62 1
    64   30   31 ar
    65   30   63 1
    66   31   32 ar
    67   31   64 1
    68   32   33 ar
    69   32   65 1
    70   33   66 1
@<TRIPOS>MOLECULE
CHEMBL291467
   66    69     0     0     0
SMALL
USER_CHARGES

@<TRIPOS>ATOM
      1 C1         -0.2369    2.2101   -0.1775 C.3       1 <0>        -0.1545
      2 C2         -0.1348    0.6836   -0.1653 C.3       1 <0>        -0.1256
      3 C3         -1.5397    0.0787   -0.1324 C.3       1 <0>        -0.1218
      4 C4         -1.4376   -1.4478   -0.1201 C.3       1 <0>        -0.1202
      5 C5         -2.8425   -2.0528   -0.0873 C.3       1 <0>        -0.1204
      6 C6         -2.7404   -3.5793   -0.0750 C.3       1 <0>        -0.1191
      7 C7         -4.1453   -4.1842   -0.0421 C.3       1 <0>        -0.1108
      8 C8         -4.0432   -5.7107   -0.0299 C.3       1 <0>        -0.0707
      9 C9         -5.4270   -6.3066    0.0025 C.ar      1 <0>         0.1484
     10 C10        -5.7975   -7.2221   -0.9625 C.ar      1 <0>        -0.1645
     11 C11        -7.0737   -7.7678   -0.9278 C.ar      1 <0>        -0.0628
     12 C12        -7.9342   -7.3712    0.0803 C.ar      1 <0>        -0.1622
     13 C13        -7.4942   -6.4445    1.0196 C.ar      1 <0>         0.3593
     14 N1         -6.2670   -5.9507    0.9556 N.ar      1 <0>        -0.4805
     15 N2         -8.3489   -6.0369    2.0384 N.pl3     1 <0>        -0.5694
     16 C14        -8.5348   -6.7405    3.3102 C.3       1 <0>         0.1225
     17 C15        -9.5663   -5.9052    4.0860 C.3       1 <0>        -0.0812
     18 C16        -9.8957   -4.7543    3.1621 C.ar      1 <0>        -0.1826
     19 C17        -9.1508   -4.8940    2.0011 C.ar      1 <0>         0.2598
     20 C18        -9.2834   -3.9383    0.9918 C.ar      1 <0>        -0.1851
     21 C19       -10.1406   -2.8707    1.1536 C.ar      1 <0>         0.0295
     22 C20       -10.8756   -2.7383    2.3171 C.ar      1 <0>        -0.7200
     23 C21       -10.7568   -3.6856    3.3175 C.ar      1 <0>         0.0404
     24 S1        -11.9691   -1.3716    2.5203 S.o2      1 <0>         2.6952
     25 O1        -12.0350   -1.1081    3.9151 O.2       1 <0>        -0.9535
     26 O2        -11.5684   -0.3872    1.5771 O.2       1 <0>        -0.9512
     27 N3        -13.4775   -1.8792    2.0627 N.pl3     1 <0>        -1.0587
     28 C22       -13.7030   -2.3058    0.7520 C.ar      1 <0>         0.1450
     29 C23       -13.2166   -1.5620   -0.3156 C.ar      1 <0>        -0.1529
     30 C24       -13.4409   -1.9870   -1.6104 C.ar      1 <0>        -0.0968
     31 C25       -14.1493   -3.1513   -1.8447 C.ar      1 <0>        -0.1279
     32 C26       -14.6350   -3.8941   -0.7842 C.ar      1 <0>        -0.1030
     33 C27       -14.4093   -3.4779    0.5132 C.ar      1 <0>        -0.1292
     34 H1          0.7640    2.6411   -0.2009 H         1 <0>         0.0533
     35 H2         -0.7910    2.5301   -1.0600 H         1 <0>         0.0534
     36 H3         -0.7566    2.5467    0.7196 H         1 <0>         0.0536
     37 H4          0.3848    0.3470   -1.0624 H         1 <0>         0.0600
     38 H5          0.4193    0.3636    0.7172 H         1 <0>         0.0601
     39 H6         -2.0594    0.4153    0.7647 H         1 <0>         0.0609
     40 H7         -2.0938    0.3987   -1.0148 H         1 <0>         0.0607
     41 H8         -0.9180   -1.7844   -1.0172 H         1 <0>         0.0605
     42 H9         -0.8835   -1.7678    0.7623 H         1 <0>         0.0606
     43 H10        -3.3621   -1.7162    0.8098 H         1 <0>         0.0615
     44 H11        -3.3966   -1.7328   -0.9697 H         1 <0>         0.0607
     45 H12        -2.2208   -3.9159   -0.9721 H         1 <0>         0.0616
     46 H13        -2.1863   -3.8993    0.8074 H         1 <0>         0.0624
     47 H14        -4.6649   -3.8476    0.8550 H         1 <0>         0.0724
     48 H15        -4.6994   -3.8642   -0.9246 H         1 <0>         0.0596
     49 H16        -3.5236   -6.0473   -0.9270 H         1 <0>         0.0823
     50 H17        -3.4891   -6.0307    0.8526 H         1 <0>         0.0842
     51 H18        -5.1018   -7.5104   -1.7366 H         1 <0>         0.1414
     52 H19        -7.3877   -8.4855   -1.6713 H         1 <0>         0.1428
     53 H20        -8.9341   -7.7754    0.1369 H         1 <0>         0.1376
     54 H21        -8.9178   -7.7456    3.1339 H         1 <0>         0.0779
     55 H22        -7.5941   -6.7845    3.8591 H         1 <0>         0.0766
     56 H23       -10.4589   -6.4967    4.2898 H         1 <0>         0.0930
     57 H24        -9.1341   -5.5348    5.0156 H         1 <0>         0.0931
     58 H25        -8.7118   -4.0357    0.0806 H         1 <0>         0.1234
     59 H26       -10.2379   -2.1350    0.3689 H         1 <0>         0.1423
     60 H27       -11.3296   -3.5831    4.2273 H         1 <0>         0.1388
     61 H28       -14.2045   -1.8803    2.7049 H         1 <0>         0.4264
     62 H29       -12.6639   -0.6523   -0.1334 H         1 <0>         0.1555
     63 H30       -13.0630   -1.4092   -2.4409 H         1 <0>         0.1297
     64 H31       -14.3240   -3.4810   -2.8582 H         1 <0>         0.1248
     65 H32       -15.1879   -4.8029   -0.9707 H         1 <0>         0.1264
     66 H33       -14.7850   -4.0609    1.3410 H         1 <0>         0.1274
@<TRIPOS>BOND
     1    1    2 1
     2    1   34 1
     3    1   35 1
     4    1   36 1
     5    2    3 1
     6    2   37 1
     7    2   38 1
     8    3    4 1
     9    3   39 1
    10    3   40 1
    11    4    5 1
    12    4   41 1
    13    4   42 1
    14    5    6 1
    15    5   43 1
    16    5   44 1
    17    6    7 1
    18    6   45 1
    19    6   46 1
    20    7    8 1
    21    7   47 1
    22    7   48 1
    23    8    9 1
    24    8   49 1
    25    8   50 1
    26    9   14 ar
    27    9   10 ar
    28   10   11 ar
    29   10   51 1
    30   11   12 ar
    31   11   52 1
    32   12   13 ar
    33   12   53 1
    34   13   14 ar
    35   13   15 1
    36   15   19 1
    37   15   16 1
    38   16   17 1
    39   16   54 1
    40   16   55 1
    41   17   18 1
    42   17   56 1
    43   17   57 1
    44   18   23 ar
    45   18   19 ar
    46   19   20 ar
    47   20   21 ar
    48   20   58 1
    49   21   22 ar
    50   21   59 1
    51   22   23 ar
    52   22   24 1
    53   23   60 1
    54   24   25 2
    55   24   26 2
    56   24   27 1
    57   27   28 1
    58   27   61 1
    59   28   33 ar
    60   28   29 ar
    61   29   30 ar
    62   29   62 1
    63   30   31 ar
    64   30   63 1
    65   31   32 ar
    66   31   64 1
    67   32   33 ar
    68   32   65 1
    69   33   66 1
@<TRIPOS>MOLECULE
CHEMBL433252
   65    69     0     0     0
SMALL
USER_CHARGES

@<TRIPOS>ATOM
      1 C1          6.5966   -2.9120    1.5818 C.ar      1 <0>        -0.1235
      2 C2          5.8752   -3.2271    2.7187 C.ar      1 <0>        -0.1026
      3 C3          5.6345   -4.5481    3.0417 C.ar      1 <0>        -0.1283
      4 C4          6.1181   -5.5608    2.2230 C.ar      1 <0>         0.1365
      5 C5          6.8425   -5.2407    1.0817 C.ar      1 <0>        -0.1524
      6 C6          7.0795   -3.9176    0.7647 C.ar      1 <0>        -0.0958
      7 N1          5.8770   -6.8979    2.5469 N.pl3     1 <0>        -1.0549
      8 S1          5.3556   -7.9514    1.3804 S.o2      1 <0>         2.6918
      9 O1          6.2630   -7.8349    0.2931 O.2       1 <0>        -0.9408
     10 O2          5.1037   -9.1881    2.0334 O.2       1 <0>        -0.9448
     11 C7          3.7992   -7.3606    0.8030 C.ar      1 <0>        -0.6929
     12 C8          2.6387   -7.6884    1.4802 C.ar      1 <0>         0.0259
     13 C9          1.4197   -7.2280    1.0311 C.ar      1 <0>        -0.1777
     14 C10         1.3465   -6.4274   -0.1111 C.ar      1 <0>         0.2103
     15 C11         2.5154   -6.1047   -0.7823 C.ar      1 <0>        -0.1504
     16 C12         3.7357   -6.5637   -0.3247 C.ar      1 <0>         0.0434
     17 C13         2.1639   -5.2382   -1.9708 C.3       1 <0>        -0.0872
     18 C14         0.6344   -5.0962   -1.9066 C.3       1 <0>         0.1180
     19 N2          0.2266   -5.8641   -0.7269 N.pl3     1 <0>        -0.6026
     20 C15        -1.0840   -6.0101   -0.2849 C.ar      1 <0>         0.4051
     21 C16        -1.5821   -5.1525    0.6910 C.ar      1 <0>        -0.1140
     22 C17        -2.8871   -5.3090    1.1213 C.ar      1 <0>         0.0189
     23 C18        -3.6534   -6.3217    0.5592 C.ar      1 <0>        -0.1211
     24 C19        -3.0949   -7.1364   -0.4051 C.ar      1 <0>         0.1843
     25 N3         -1.8483   -6.9605   -0.8005 N.ar      1 <0>        -0.4576
     26 C20        -3.9214   -8.2373   -1.0184 C.3       1 <0>        -0.1096
     27 C21        -4.7450   -7.6716   -2.1770 C.3       1 <0>        -0.1198
     28 C22        -5.5841   -8.7893   -2.7997 C.3       1 <0>        -0.1137
     29 C23        -6.4077   -8.2237   -3.9583 C.3       1 <0>        -0.0935
     30 C24        -7.4800   -7.2538   -3.4204 C.3       1 <0>        -0.1211
     31 C25        -8.7101   -7.5068   -4.3270 C.3       1 <0>        -0.1289
     32 C26        -8.6648   -9.0396   -4.5447 C.3       1 <0>        -0.1276
     33 C27        -7.1610   -9.3591   -4.6732 C.3       1 <0>        -0.1236
     34 H1          6.7796   -1.8780    1.3292 H         1 <0>         0.1276
     35 H2          5.4998   -2.4393    3.3550 H         1 <0>         0.1283
     36 H3          5.0713   -4.7935    3.9299 H         1 <0>         0.1276
     37 H4          7.2202   -6.0257    0.4433 H         1 <0>         0.1558
     38 H5          7.6427   -3.6681   -0.1224 H         1 <0>         0.1323
     39 H6          6.0149   -7.2094    3.4551 H         1 <0>         0.4297
     40 H7          2.6878   -8.3076    2.3637 H         1 <0>         0.1507
     41 H8          0.5172   -7.4876    1.5645 H         1 <0>         0.1266
     42 H9          4.6414   -6.3031   -0.8521 H         1 <0>         0.1529
     43 H10         2.6405   -4.2618   -1.8837 H         1 <0>         0.1070
     44 H11         2.4619   -5.7264   -2.8987 H         1 <0>         0.1045
     45 H12         0.3564   -4.0487   -1.7905 H         1 <0>         0.0939
     46 H13         0.1780   -5.5121   -2.8048 H         1 <0>         0.0839
     47 H14        -0.9580   -4.3755    1.1071 H         1 <0>         0.1870
     48 H15        -3.3008   -4.6586    1.8777 H         1 <0>         0.1859
     49 H16        -4.6759   -6.4706    0.8736 H         1 <0>         0.1909
     50 H17        -3.2626   -9.0221   -1.3900 H         1 <0>         0.1023
     51 H18        -4.5911   -8.6516   -0.2648 H         1 <0>         0.1275
     52 H19        -5.4038   -6.8868   -1.8054 H         1 <0>         0.0820
     53 H20        -4.0753   -7.2572   -2.9306 H         1 <0>         0.0682
     54 H21        -4.9253   -9.5742   -3.1713 H         1 <0>         0.0688
     55 H22        -6.2538   -9.2037   -2.0461 H         1 <0>         0.0741
     56 H23        -5.7555   -7.7071   -4.6625 H         1 <0>         0.0712
     57 H24        -7.7173   -7.4852   -2.3820 H         1 <0>         0.0668
     58 H25        -7.1425   -6.2216   -3.5146 H         1 <0>         0.0620
     59 H26        -9.6301   -7.2157   -3.8199 H         1 <0>         0.0683
     60 H27        -8.6066   -6.9787   -5.2749 H         1 <0>         0.0678
     61 H28        -9.0934   -9.5595   -3.6879 H         1 <0>         0.0662
     62 H29        -9.1919   -9.3107   -5.4594 H         1 <0>         0.0675
     63 H30        -6.8750   -9.3930   -5.7244 H         1 <0>         0.0654
     64 H31        -6.9398  -10.3132   -4.1946 H         1 <0>         0.0657
     65 H32        -1.4816   -7.5443   -1.4829 H         1 <0>         0.4420
@<TRIPOS>BOND
     1    1    6 ar
     2    1    2 ar
     3    1   34 1
     4    2    3 ar
     5    2   35 1
     6    3    4 ar
     7    3   36 1
     8    4    5 ar
     9    4    7 1
    10    5    6 ar
    11    5   37 1
    12    6   38 1
    13    7    8 1
    14    7   39 1
    15    8    9 2
    16    8   10 2
    17    8   11 1
    18   11   16 ar
    19   11   12 ar
    20   12   13 ar
    21   12   40 1
    22   13   14 ar
    23   13   41 1
    24   14   19 1
    25   14   15 ar
    26   15   16 ar
    27   15   17 1
    28   16   42 1
    29   17   18 1
    30   17   43 1
    31   17   44 1
    32   18   19 1
    33   18   45 1
    34   18   46 1
    35   19   20 1
    36   20   25 ar
    37   20   21 ar
    38   21   22 ar
    39   21   47 1
    40   22   23 ar
    41   22   48 1
    42   23   24 ar
    43   23   49 1
    44   24   25 ar
    45   24   26 1
    46   25   65 1
    47   26   27 1
    48   26   50 1
    49   26   51 1
    50   27   28 1
    51   27   52 1
    52   27   53 1
    53   28   29 1
    54   28   54 1
    55   28   55 1
    56   29   33 1
    57   29   30 1
    58   29   56 1
    59   30   31 1
    60   30   57 1
    61   30   58 1
    62   31   32 1
    63   31   59 1
    64   31   60 1
    65   32   33 1
    66   32   61 1
    67   32   62 1
    68   33   63 1
    69   33   64 1
@<TRIPOS>MOLECULE
CHEMBL433252
   64    68     0     0     0
SMALL
USER_CHARGES

@<TRIPOS>ATOM
      1 C1          6.4635   -2.5626    1.4125 C.ar      1 <0>        -0.1277
      2 C2          5.7237   -2.7961    2.5572 C.ar      1 <0>        -0.1030
      3 C3          5.5052   -4.0898    2.9881 C.ar      1 <0>        -0.1292
      4 C4          6.0295   -5.1572    2.2703 C.ar      1 <0>         0.1447
      5 C5          6.7722   -4.9191    1.1208 C.ar      1 <0>        -0.1522
      6 C6          6.9870   -3.6229    0.6955 C.ar      1 <0>        -0.0967
      7 N1          5.8108   -6.4670    2.7035 N.pl3     1 <0>        -1.0589
      8 S1          5.3395   -7.6291    1.6220 S.o2      1 <0>         2.6954
      9 O1          6.2685   -7.5847    0.5476 O.2       1 <0>        -0.9513
     10 O2          5.1004   -8.8108    2.3741 O.2       1 <0>        -0.9535
     11 C7          3.7839   -7.1278    0.9636 C.ar      1 <0>        -0.7203
     12 C8          2.6159   -7.4240    1.6425 C.ar      1 <0>         0.0264
     13 C9          1.3974   -7.0334    1.1303 C.ar      1 <0>        -0.1882
     14 C10         1.3324   -6.3360   -0.0782 C.ar      1 <0>         0.2589
     15 C11         2.5087   -6.0441   -0.7505 C.ar      1 <0>        -0.1808
     16 C12         3.7282   -6.4325   -0.2298 C.ar      1 <0>         0.0440
     17 C13         2.1651   -5.2917   -2.0164 C.3       1 <0>        -0.0813
     18 C14         0.6317   -5.1816   -1.9963 C.3       1 <0>         0.1226
     19 N2          0.2145   -5.8548   -0.7634 N.pl3     1 <0>        -0.5688
     20 C15        -1.1022   -5.9938   -0.3375 C.ar      1 <0>         0.3599
     21 C16        -1.6394   -5.0709    0.5545 C.ar      1 <0>        -0.1629
     22 C17        -2.9501   -5.2212    0.9696 C.ar      1 <0>        -0.0628
     23 C18        -3.6826   -6.2934    0.4770 C.ar      1 <0>        -0.1648
     24 C19        -3.0861   -7.1712   -0.4057 C.ar      1 <0>         0.1488
     25 N3         -1.8350   -7.0000   -0.7888 N.ar      1 <0>        -0.4803
     26 C20        -3.8757   -8.3367   -0.9432 C.3       1 <0>        -0.0716
     27 C21        -3.8497   -8.3084   -2.4728 C.3       1 <0>        -0.1097
     28 C22        -4.6514   -9.4917   -3.0185 C.3       1 <0>        -0.1120
     29 C23        -4.6254   -9.4634   -4.5480 C.3       1 <0>        -0.0926
     30 C24        -5.4194   -8.2470   -5.0676 C.3       1 <0>        -0.1194
     31 C25        -6.1225   -8.7698   -6.3449 C.3       1 <0>        -0.1275
     32 C26        -6.5138  -10.2160   -5.9520 C.3       1 <0>        -0.1256
     33 C27        -5.3213  -10.7153   -5.1104 C.3       1 <0>        -0.1226
     34 H1          6.6291   -1.5501    1.0752 H         1 <0>         0.1249
     35 H2          5.3166   -1.9657    3.1151 H         1 <0>         0.1263
     36 H3          4.9276   -4.2715    3.8825 H         1 <0>         0.1271
     37 H4          7.1816   -5.7467    0.5606 H         1 <0>         0.1554
     38 H5          7.5644   -3.4370   -0.1981 H         1 <0>         0.1299
     39 H6          5.9351   -6.6958    3.6379 H         1 <0>         0.4264
     40 H7          2.6587   -7.9636    2.5771 H         1 <0>         0.1401
     41 H8          0.4891   -7.2678    1.6654 H         1 <0>         0.1239
     42 H9          4.6397   -6.1965   -0.7589 H         1 <0>         0.1416
     43 H10         2.6178   -4.3002   -2.0042 H         1 <0>         0.0933
     44 H11         2.4948   -5.8505   -2.8923 H         1 <0>         0.0930
     45 H12         0.3280   -4.1349   -1.9770 H         1 <0>         0.0771
     46 H13         0.2051   -5.6840   -2.8644 H         1 <0>         0.0774
     47 H14        -1.0410   -4.2487    0.9180 H         1 <0>         0.1375
     48 H15        -3.3938   -4.5207    1.6616 H         1 <0>         0.1426
     49 H16        -4.7084   -6.4391    0.7818 H         1 <0>         0.1412
     50 H17        -3.4345   -9.2686   -0.5896 H         1 <0>         0.0845
     51 H18        -4.9067   -8.2682   -0.5961 H         1 <0>         0.0820
     52 H19        -4.2910   -7.3765   -2.8264 H         1 <0>         0.0607
     53 H20        -2.8188   -8.3769   -2.8199 H         1 <0>         0.0715
     54 H21        -4.2101  -10.4236   -2.6648 H         1 <0>         0.0629
     55 H22        -5.6824   -9.4232   -2.6713 H         1 <0>         0.0631
     56 H23        -3.5958   -9.4173   -4.9029 H         1 <0>         0.0702
     57 H24        -6.1559   -7.9288   -4.3298 H         1 <0>         0.0658
     58 H25        -4.7443   -7.4270   -5.3122 H         1 <0>         0.0615
     59 H26        -7.0094   -8.1767   -6.5679 H         1 <0>         0.0643
     60 H27        -5.4351   -8.7719   -7.1908 H         1 <0>         0.0653
     61 H28        -7.4271  -10.2158   -5.3570 H         1 <0>         0.0640
     62 H29        -6.6374  -10.8330   -6.8421 H         1 <0>         0.0632
     63 H30        -4.6296  -11.2764   -5.7388 H         1 <0>         0.0620
     64 H31        -5.6775  -11.3431   -4.2936 H         1 <0>         0.0643
@<TRIPOS>BOND
     1    1    6 ar
     2    1    2 ar
     3    1   34 1
     4    2    3 ar
     5    2   35 1
     6    3    4 ar
     7    3   36 1
     8    4    5 ar
     9    4    7 1
    10    5    6 ar
    11    5   37 1
    12    6   38 1
    13    7    8 1
    14    7   39 1
    15    8    9 2
    16    8   10 2
    17    8   11 1
    18   11   16 ar
    19   11   12 ar
    20   12   13 ar
    21   12   40 1
    22   13   14 ar
    23   13   41 1
    24   14   19 1
    25   14   15 ar
    26   15   16 ar
    27   15   17 1
    28   16   42 1
    29   17   18 1
    30   17   43 1
    31   17   44 1
    32   18   19 1
    33   18   45 1
    34   18   46 1
    35   19   20 1
    36   20   25 ar
    37   20   21 ar
    38   21   22 ar
    39   21   47 1
    40   22   23 ar
    41   22   48 1
    42   23   24 ar
    43   23   49 1
    44   24   25 ar
    45   24   26 1
    46   26   27 1
    47   26   50 1
    48   26   51 1
    49   27   28 1
    50   27   52 1
    51   27   53 1
    52   28   29 1
    53   28   54 1
    54   28   55 1
    55   29   33 1
    56   29   30 1
    57   29   56 1
    58   30   31 1
    59   30   57 1
    60   30   58 1
    61   31   32 1
    62   31   59 1
    63   31   60 1
    64   32   33 1
    65   32   61 1
    66   32   62 1
    67   33   63 1
    68   33   64 1
@<TRIPOS>MOLECULE
CHEMBL295241
   52    55     0     0     0
SMALL
USER_CHARGES

@<TRIPOS>ATOM
      1 C1          0.1473    1.3587    1.4885 C.ar      1 <0>        -0.1276
      2 C2          1.3388    2.0614    1.4828 C.ar      1 <0>        -0.1148
      3 C3          2.5375    1.3913    1.3456 C.ar      1 <0>        -0.1204
      4 C4          2.5459    0.0040    1.2127 C.ar      1 <0>        -0.0289
      5 C5          1.3425   -0.6988    1.2192 C.ar      1 <0>        -0.1206
      6 C6          0.1498   -0.0183    1.3570 C.ar      1 <0>        -0.1149
      7 C7          3.8312   -0.7218    1.0644 C.ar      1 <0>        -0.1086
      8 C8          5.0343   -0.0177    1.0634 C.ar      1 <0>        -0.0578
      9 C9          6.2275   -0.6941    0.9254 C.ar      1 <0>        -0.1915
     10 C10         6.2316   -2.0774    0.7869 C.ar      1 <0>         0.2209
     11 C11         5.0328   -2.7814    0.7871 C.ar      1 <0>        -0.1975
     12 C12         3.8378   -2.1095    0.9316 C.ar      1 <0>        -0.0582
     13 N1          7.4407   -2.7602    0.6468 N.pl3     1 <0>        -0.7394
     14 C13         7.4460   -4.2179    0.5008 C.3       1 <0>         0.0984
     15 C14         8.8879   -4.7116    0.3658 C.3       1 <0>         0.1030
     16 C15         8.8879   -6.2163    0.0888 C.3       1 <0>         0.0449
     17 O1         10.2260   -6.6562   -0.1525 O.3       1 <0>        -0.2181
     18 N2         10.3370   -8.0421   -0.4209 N.2       1 <0>        -0.3429
     19 C16        11.4843   -8.5588   -0.6535 C.2       1 <0>         0.2015
     20 C17        11.6204  -10.0513   -0.8116 C.3       1 <0>        -0.1110
     21 C18        10.8982  -10.7056   -1.9910 C.3       1 <0>        -0.1577
     22 C19        10.3739  -10.9042   -0.5675 C.3       1 <0>        -0.1612
     23 C20        12.6993   -7.6748   -0.7694 C.3       1 <0>        -0.1571
     24 C21        12.5831   -6.4256   -1.6450 C.3       1 <0>        -0.1522
     25 C22        13.4077   -7.6219   -2.1244 C.3       1 <0>        -0.1634
     26 O2          9.5963   -4.4506    1.5792 O.3       1 <0>        -0.5477
     27 H1         -0.7881    1.8868    1.6006 H         1 <0>         0.1210
     28 H2          1.3310    3.1365    1.5855 H         1 <0>         0.1225
     29 H3          3.4671    1.9409    1.3409 H         1 <0>         0.1234
     30 H4          1.3432   -1.7738    1.1162 H         1 <0>         0.1229
     31 H5         -0.7834   -0.5619    1.3625 H         1 <0>         0.1223
     32 H6          5.0316    1.0570    1.1703 H         1 <0>         0.1251
     33 H7          7.1599   -0.1490    0.9246 H         1 <0>         0.1229
     34 H8          5.0380   -3.8559    0.6787 H         1 <0>         0.1212
     35 H9          2.9070   -2.6573    0.9365 H         1 <0>         0.1242
     36 H10         8.2775   -2.2696    0.6462 H         1 <0>         0.4053
     37 H11         6.9869   -4.6727    1.3785 H         1 <0>         0.0679
     38 H12         6.8820   -4.4959   -0.3895 H         1 <0>         0.0730
     39 H13         9.3748   -4.1904   -0.4584 H         1 <0>         0.1130
     40 H14         8.4818   -6.7446    0.9514 H         1 <0>         0.0622
     41 H15         8.2735   -6.4245   -0.7871 H         1 <0>         0.0662
     42 H16        12.5824  -10.4696   -0.5153 H         1 <0>         0.1319
     43 H17        10.3246  -10.0565   -2.6527 H         1 <0>         0.0959
     44 H18        11.3850  -11.5545   -2.4711 H         1 <0>         0.1047
     45 H19        10.5158  -11.8837   -0.1110 H         1 <0>         0.1022
     46 H20         9.4553  -10.3858   -0.2926 H         1 <0>         0.1047
     47 H21        13.3183   -7.6070    0.1252 H         1 <0>         0.1218
     48 H22        11.6279   -6.2431   -2.1373 H         1 <0>         0.0933
     49 H23        13.1257   -5.5355   -1.3265 H         1 <0>         0.0993
     50 H24        14.4929   -7.5188   -2.1213 H         1 <0>         0.1011
     51 H25        12.9950   -8.2264   -2.9321 H         1 <0>         0.0971
     52 H26         9.2179   -4.8839    2.3565 H         1 <0>         0.3779
@<TRIPOS>BOND
     1    1    6 ar
     2    1    2 ar
     3    1   27 1
     4    2    3 ar
     5    2   28 1
     6    3    4 ar
     7    3   29 1
     8    4    5 ar
     9    4    7 1
    10    5    6 ar
    11    5   30 1
    12    6   31 1
    13    7   12 ar
    14    7    8 ar
    15    8    9 ar
    16    8   32 1
    17    9   10 ar
    18    9   33 1
    19   10   11 ar
    20   10   13 1
    21   11   12 ar
    22   11   34 1
    23   12   35 1
    24   13   14 1
    25   13   36 1
    26   14   15 1
    27   14   37 1
    28   14   38 1
    29   15   16 1
    30   15   26 1
    31   15   39 1
    32   16   17 1
    33   16   40 1
    34   16   41 1
    35   17   18 1
    36   18   19 2
    37   19   20 1
    38   19   23 1
    39   20   22 1
    40   20   21 1
    41   20   42 1
    42   21   22 1
    43   21   43 1
    44   21   44 1
    45   22   45 1
    46   22   46 1
    47   23   25 1
    48   23   24 1
    49   23   47 1
    50   24   25 1
    51   24   48 1
    52   24   49 1
    53   25   50 1
    54   25   51 1
    55   26   52 1
@<TRIPOS>MOLECULE
CHEMBL295241
   52    55     0     0     0
SMALL
USER_CHARGES

@<TRIPOS>ATOM
      1 C1          0.0196    1.3168    1.4916 C.ar      1 <0>        -0.1276
      2 C2          1.2047    2.0302    1.4886 C.ar      1 <0>        -0.1148
      3 C3          2.4096    1.3710    1.3523 C.ar      1 <0>        -0.1204
      4 C4          2.4308   -0.0159    1.2176 C.ar      1 <0>        -0.0289
      5 C5          1.2337   -0.7295    1.2213 C.ar      1 <0>        -0.1206
      6 C6          0.0347   -0.0600    1.3582 C.ar      1 <0>        -0.1149
      7 C7          3.7227   -0.7299    1.0702 C.ar      1 <0>        -0.1087
      8 C8          4.9195   -0.0150    1.0720 C.ar      1 <0>        -0.0579
      9 C9          6.1190   -0.6805    0.9349 C.ar      1 <0>        -0.1915
     10 C10         6.1356   -2.0635    0.7945 C.ar      1 <0>         0.2210
     11 C11         4.9433   -2.7782    0.7920 C.ar      1 <0>        -0.1976
     12 C12         3.7420   -2.1173    0.9355 C.ar      1 <0>        -0.0582
     13 N1          7.3511   -2.7352    0.6554 N.pl3     1 <0>        -0.7390
     14 C13         7.3698   -4.1925    0.5074 C.3       1 <0>         0.0980
     15 C14         8.8163   -4.6730    0.3739 C.3       1 <0>         0.1030
     16 C15         8.8358   -6.1951    0.2194 C.3       1 <0>         0.0451
     17 O1         10.1885   -6.6557    0.2117 O.3       1 <0>        -0.2183
     18 N2         10.3183   -8.0589    0.0724 N.2       1 <0>        -0.3430
     19 C16        11.4800   -8.5950    0.0515 C.2       1 <0>         0.2016
     20 C17        11.6171  -10.0956    0.0331 C.3       1 <0>        -0.1111
     21 C18        11.0653  -10.8406   -1.1839 C.3       1 <0>        -0.1576
     22 C19        10.3367  -10.9236    0.1589 C.3       1 <0>        -0.1614
     23 C20        12.7110   -7.7257    0.0451 C.3       1 <0>        -0.1595
     24 C21        12.7408   -6.5503   -0.9338 C.3       1 <0>        -0.1483
     25 C22        13.6098   -7.7828   -1.1917 C.3       1 <0>        -0.1643
     26 O2          9.4145   -4.0698   -0.7751 O.3       1 <0>        -0.5474
     27 H1         -0.9207    1.8362    1.6030 H         1 <0>         0.1210
     28 H2          1.1871    3.1050    1.5927 H         1 <0>         0.1225
     29 H3          3.3343    1.9290    1.3497 H         1 <0>         0.1233
     30 H4          1.2443   -1.8044    1.1168 H         1 <0>         0.1229
     31 H5         -0.8936   -0.6120    1.3616 H         1 <0>         0.1223
     32 H6          4.9069    1.0595    1.1803 H         1 <0>         0.1251
     33 H7          7.0464   -0.1270    0.9362 H         1 <0>         0.1229
     34 H8          4.9584   -3.8525    0.6821 H         1 <0>         0.1212
     35 H9          2.8162   -2.6734    0.9384 H         1 <0>         0.1241
     36 H10         8.1834   -2.2370    0.6567 H         1 <0>         0.4059
     37 H11         6.9135   -4.6526    1.3838 H         1 <0>         0.0734
     38 H12         6.8096   -4.4744   -0.3842 H         1 <0>         0.0670
     39 H13         9.3765   -4.3911    1.2655 H         1 <0>         0.1136
     40 H14         8.3012   -6.6518    1.0522 H         1 <0>         0.0675
     41 H15         8.3526   -6.4714   -0.7178 H         1 <0>         0.0607
     42 H16        12.5198  -10.4909    0.4989 H         1 <0>         0.1318
     43 H17        10.6030  -10.2453   -1.9714 H         1 <0>         0.0958
     44 H18        11.6050  -11.7262   -1.5192 H         1 <0>         0.1047
     45 H19        10.3971  -11.8638    0.7070 H         1 <0>         0.1022
     46 H20         9.3951  -10.3829    0.2548 H         1 <0>         0.1047
     47 H21        13.1942   -7.5879    1.0124 H         1 <0>         0.1209
     48 H22        11.8700   -6.4057   -1.5733 H         1 <0>         0.0956
     49 H23        13.2435   -5.6387   -0.6106 H         1 <0>         0.0987
     50 H24        14.6842   -7.6822   -1.0382 H         1 <0>         0.1005
     51 H25        13.3107   -8.4491   -2.0008 H         1 <0>         0.0967
     52 H26         8.9669   -4.2780   -1.6066 H         1 <0>         0.3772
@<TRIPOS>BOND
     1    1    6 ar
     2    1    2 ar
     3    1   27 1
     4    2    3 ar
     5    2   28 1
     6    3    4 ar
     7    3   29 1
     8    4    5 ar
     9    4    7 1
    10    5    6 ar
    11    5   30 1
    12    6   31 1
    13    7   12 ar
    14    7    8 ar
    15    8    9 ar
    16    8   32 1
    17    9   10 ar
    18    9   33 1
    19   10   11 ar
    20   10   13 1
    21   11   12 ar
    22   11   34 1
    23   12   35 1
    24   13   14 1
    25   13   36 1
    26   14   15 1
    27   14   37 1
    28   14   38 1
    29   15   16 1
    30   15   26 1
    31   15   39 1
    32   16   17 1
    33   16   40 1
    34   16   41 1
    35   17   18 1
    36   18   19 2
    37   19   20 1
    38   19   23 1
    39   20   22 1
    40   20   21 1
    41   20   42 1
    42   21   22 1
    43   21   43 1
    44   21   44 1
    45   22   45 1
    46   22   46 1
    47   23   25 1
    48   23   24 1
    49   23   47 1
    50   24   25 1
    51   24   48 1
    52   24   49 1
    53   25   50 1
    54   25   51 1
    55   26   52 1
@<TRIPOS>MOLECULE
CHEMBL1078695
   67    70     0     0     0
SMALL
USER_CHARGES

@<TRIPOS>ATOM
      1 C1          1.4448    3.9248    2.1697 C.ar      1 <0>        -0.1218
      2 C2          1.5484    2.6800    2.7619 C.ar      1 <0>        -0.1174
      3 C3          2.7527    2.0018    2.7393 C.ar      1 <0>        -0.1174
      4 C4          3.8534    2.5683    2.1241 C.ar      1 <0>        -0.0874
      5 C5          3.7497    3.8127    1.5311 C.ar      1 <0>        -0.1171
      6 C6          2.5457    4.4914    1.5549 C.ar      1 <0>        -0.1171
      7 C7          5.1667    1.8294    2.1003 C.3       1 <0>        -0.0732
      8 C8          5.2368    0.9543    0.8472 C.3       1 <0>        -0.0830
      9 C9          6.5501    0.2154    0.8234 C.ar      1 <0>        -0.0429
     10 C10         7.6513    0.7877    0.2117 C.ar      1 <0>        -0.1230
     11 C11         8.8564    0.1167    0.1863 C.ar      1 <0>        -0.0495
     12 C12         8.9632   -1.1423    0.7796 C.ar      1 <0>        -0.1519
     13 C13         7.8483   -1.7139    1.3951 C.ar      1 <0>        -0.0806
     14 C14         6.6506   -1.0297    1.4183 C.ar      1 <0>        -0.1229
     15 C15        10.2512   -1.8672    0.7559 C.2       1 <0>         0.5670
     16 O1         11.2203   -1.3671    0.2188 O.2       1 <0>        -0.5153
     17 N1         10.3510   -3.0827    1.3296 N.am      1 <0>        -0.6750
     18 C16        11.5405   -3.8104    1.2234 C.ar      1 <0>         0.1669
     19 C17        11.5020   -5.1942    1.1101 C.ar      1 <0>        -0.1426
     20 C18        12.6785   -5.9098    1.0049 C.ar      1 <0>        -0.0873
     21 C19        13.8939   -5.2502    1.0129 C.ar      1 <0>        -0.1277
     22 C20        13.9357   -3.8727    1.1261 C.ar      1 <0>        -0.0873
     23 C21        12.7627   -3.1505    1.2254 C.ar      1 <0>        -0.1181
     24 C22        15.1757   -6.0345    0.8985 C.3       1 <0>        -0.0966
     25 C23        15.5542   -6.1806   -0.5767 C.3       1 <0>        -0.0080
     26 N2         16.8037   -6.9451   -0.6883 N.4       1 <0>        -0.5052
     27 C24        17.1671   -7.0854   -2.1047 C.3       1 <0>        -0.0428
     28 C25        18.4684   -7.8816   -2.2208 C.3       1 <0>         0.1417
     29 H1         18.3303   -8.8695   -1.7815 H         1 <0>         0.1338
     30 C26        18.8412   -8.0255   -3.6739 C.ar      1 <0>        -0.2004
     31 C27        18.4701   -9.1566   -4.3852 C.ar      1 <0>        -0.0550
     32 C28        18.8349   -9.2460   -5.7197 C.ar      1 <0>        -0.1643
     33 C29        19.5513   -8.2121   -6.2927 C.ar      1 <0>         0.1224
     34 N3         19.8876   -7.1513   -5.5854 N.ar      1 <0>        -0.4748
     35 C30        19.5523   -7.0296   -4.3157 C.ar      1 <0>         0.1174
     36 O2         19.5113   -7.1935   -1.5274 O.3       1 <0>        -0.5461
     37 H2          0.5027    4.4526    2.1835 H         1 <0>         0.1226
     38 H3          0.6884    2.2375    3.2425 H         1 <0>         0.1227
     39 H4          2.8338    1.0296    3.2026 H         1 <0>         0.1206
     40 H5          4.6097    4.2554    1.0507 H         1 <0>         0.1211
     41 H6          2.4647    5.4638    1.0920 H         1 <0>         0.1229
     42 H7          5.9871    2.5469    2.0888 H         1 <0>         0.0754
     43 H8          5.2460    1.2009    2.9873 H         1 <0>         0.0749
     44 H9          4.4164    0.2368    0.8587 H         1 <0>         0.0800
     45 H10         5.1575    1.5828   -0.0398 H         1 <0>         0.0805
     46 H11         7.5672    1.7617   -0.2473 H         1 <0>         0.1342
     47 H12         9.7151    0.5644   -0.2918 H         1 <0>         0.1379
     48 H13         7.9243   -2.6878    1.8556 H         1 <0>         0.1247
     49 H14         5.7884   -1.4689    1.8979 H         1 <0>         0.1328
     50 H15         9.5979   -3.4527    1.8162 H         1 <0>         0.4148
     51 H16        10.5532   -5.7099    1.1045 H         1 <0>         0.1324
     52 H17        12.6493   -6.9858    0.9167 H         1 <0>         0.1287
     53 H18        14.8866   -3.3606    1.1324 H         1 <0>         0.1283
     54 H19        12.7958   -2.0743    1.3093 H         1 <0>         0.1459
     55 H20        15.9712   -5.5096    1.4274 H         1 <0>         0.0963
     56 H21        15.0376   -7.0224    1.3378 H         1 <0>         0.0958
     57 H22        14.7587   -6.7055   -1.1057 H         1 <0>         0.1334
     58 H23        15.6923   -5.1927   -1.0160 H         1 <0>         0.1337
     59 H24        17.5401   -6.4592   -0.1986 H         1 <0>         0.4326
     60 H25        16.3715   -7.6103   -2.6336 H         1 <0>         0.1444
     61 H26        17.3051   -6.0974   -2.5439 H         1 <0>         0.1377
     62 H27        17.9104   -9.9491   -3.9108 H         1 <0>         0.1410
     63 H28        18.5630  -10.1126   -6.3040 H         1 <0>         0.1472
     64 H29        19.8394   -8.2740   -7.3318 H         1 <0>         0.1671
     65 H30        19.8410   -6.1435   -3.7700 H         1 <0>         0.1531
     66 H31        19.6891   -6.3052   -1.8657 H         1 <0>         0.3901
     67 H32        16.6758   -7.8596   -0.2816 H         1 <0>         0.4293
@<TRIPOS>BOND
     1    1    6 ar
     2    1    2 ar
     3    1   37 1
     4    2    3 ar
     5    2   38 1
     6    3    4 ar
     7    3   39 1
     8    4    5 ar
     9    4    7 1
    10    5    6 ar
    11    5   40 1
    12    6   41 1
    13    7    8 1
    14    7   42 1
    15    7   43 1
    16    8    9 1
    17    8   44 1
    18    8   45 1
    19    9   14 ar
    20    9   10 ar
    21   10   11 ar
    22   10   46 1
    23   11   12 ar
    24   11   47 1
    25   12   13 ar
    26   12   15 1
    27   13   14 ar
    28   13   48 1
    29   14   49 1
    30   15   16 2
    31   15   17 am
    32   17   18 1
    33   17   50 1
    34   18   23 ar
    35   18   19 ar
    36   19   20 ar
    37   19   51 1
    38   20   21 ar
    39   20   52 1
    40   21   22 ar
    41   21   24 1
    42   22   23 ar
    43   22   53 1
    44   23   54 1
    45   24   25 1
    46   24   55 1
    47   24   56 1
    48   25   26 1
    49   25   57 1
    50   25   58 1
    51   26   27 1
    52   26   59 1
    53   26   67 1
    54   27   28 1
    55   27   60 1
    56   27   61 1
    57   28   29 1
    58   28   30 1
    59   28   36 1
    60   30   35 ar
    61   30   31 ar
    62   31   32 ar
    63   31   62 1
    64   32   33 ar
    65   32   63 1
    66   33   34 ar
    67   33   64 1
    68   34   35 ar
    69   35   65 1
    70   36   66 1
@<TRIPOS>MOLECULE
CHEMBL143463
   82    85     0     0     0
SMALL
USER_CHARGES

@<TRIPOS>ATOM
      1 C1         -0.0224    1.4861    0.0218 C.3       1 <0>        -0.1790
      2 C2         -0.0004   -0.0437    0.0050 C.3       1 <0>         0.0549
      3 C3          0.7396   -0.5567    1.2419 C.3       1 <0>        -0.1796
      4 C4         -1.4354   -0.5744    0.0125 C.3       1 <0>        -0.1787
      5 N1          0.6879   -0.5102   -1.2060 N.4       1 <0>        -0.4984
      6 C5          2.0657   -0.0006   -1.2132 C.3       1 <0>        -0.0510
      7 C6          2.7825   -0.4865   -2.4745 C.3       1 <0>         0.0875
      8 C7          4.2513   -0.0612   -2.4222 C.3       1 <0>         0.0277
      9 O1          4.9472   -0.6133   -3.5415 O.3       1 <0>        -0.2854
     10 C8          6.2733   -0.3290   -3.6457 C.ar      1 <0>         0.1865
     11 C9          6.8931    0.4599   -2.6878 C.ar      1 <0>        -0.2128
     12 C10         8.2415    0.7454   -2.7986 C.ar      1 <0>        -0.0395
     13 C11         8.9782    0.2492   -3.8559 C.ar      1 <0>        -0.1760
     14 C12         8.3711   -0.5446   -4.8245 C.ar      1 <0>         0.1978
     15 C13         7.0121   -0.8322   -4.7079 C.ar      1 <0>        -0.1657
     16 S1          6.2372   -1.8358   -5.9357 S.3       1 <0>        -0.0417
     17 C14         7.2190   -1.4693   -7.4218 C.3       1 <0>        -0.1397
     18 C15         8.6767   -1.4669   -7.0501 C.2       1 <0>         0.5240
     19 O2          9.4776   -1.8674   -7.8683 O.2       1 <0>        -0.5010
     20 N2          9.1329   -1.0398   -5.8797 N.am      1 <0>        -0.5423
     21 C16        10.5812   -1.1147   -5.6721 C.3       1 <0>         0.1018
     22 C17        11.2439    0.1402   -6.2439 C.3       1 <0>        -0.1704
     23 C18        12.7565    0.0621   -6.0271 C.3       1 <0>        -0.0050
     24 N3         13.3928    1.2669   -6.5761 N.4       1 <0>        -0.3776
     25 C19        13.1999    1.3002   -8.0314 C.3       1 <0>        -0.0274
     26 C20        13.7623    2.6114   -8.5903 C.3       1 <0>         0.1247
     27 N4         15.1635    2.7385   -8.1604 N.pl3     1 <0>        -0.6632
     28 C21        15.4701    2.5557   -6.7333 C.3       1 <0>         0.1234
     29 C22        14.8270    1.2472   -6.2621 C.3       1 <0>        -0.0225
     30 C23        16.1760    3.0257   -9.0830 C.ar      1 <0>         0.1087
     31 C24        16.5195    4.3428   -9.3512 C.ar      1 <0>        -0.0783
     32 C25        17.5201    4.6238  -10.2624 C.ar      1 <0>        -0.1455
     33 C26        18.1806    3.5951  -10.9081 C.ar      1 <0>        -0.0666
     34 C27        17.8436    2.2798  -10.6458 C.ar      1 <0>        -0.2013
     35 C28        16.8457    1.9896   -9.7303 C.ar      1 <0>         0.1240
     36 O3         16.5168    0.6963   -9.4675 O.3       1 <0>        -0.3198
     37 C29        17.2455   -0.3137  -10.1682 C.3       1 <0>         0.0223
     38 O4          2.1612    0.0871   -3.6265 O.3       1 <0>        -0.5395
     39 H1          0.9999    1.8642    0.0165 H         1 <0>         0.0795
     40 H2         -0.5496    1.8516   -0.8594 H         1 <0>         0.0840
     41 H3         -0.5331    1.8323    0.9204 H         1 <0>         0.1084
     42 H4          0.2289   -0.2106    2.1405 H         1 <0>         0.1085
     43 H5          0.7553   -1.6466    1.2300 H         1 <0>         0.0842
     44 H6          1.7619   -0.1786    1.2366 H         1 <0>         0.0800
     45 H7         -1.9626   -0.2089   -0.8687 H         1 <0>         0.0841
     46 H8         -1.4197   -1.6642    0.0006 H         1 <0>         0.0840
     47 H9         -1.9461   -0.2282    0.9111 H         1 <0>         0.1089
     48 H10         0.7024   -1.5190   -1.2171 H         1 <0>         0.4293
     49 H11         2.0500    1.0892   -1.2012 H         1 <0>         0.1423
     50 H12         2.5929   -0.3661   -0.3320 H         1 <0>         0.1478
     51 H13         2.7208   -1.5733   -2.5317 H         1 <0>         0.1357
     52 H14         4.3160    1.0264   -2.4547 H         1 <0>         0.0817
     53 H15         4.7021   -0.4246   -1.4988 H         1 <0>         0.0862
     54 H16         6.3238    0.8501   -1.8570 H         1 <0>         0.1380
     55 H17         8.7220    1.3614   -2.0529 H         1 <0>         0.1411
     56 H18        10.0308    0.4785   -3.9318 H         1 <0>         0.1339
     57 H19         7.0359   -2.2325   -8.1782 H         1 <0>         0.1565
     58 H20         6.9397   -0.4906   -7.8121 H         1 <0>         0.1290
     59 H21        10.7923   -1.1828   -4.6049 H         1 <0>         0.1029
     60 H22        10.9756   -1.9962   -6.1775 H         1 <0>         0.1092
     61 H23        11.0329    0.2084   -7.3111 H         1 <0>         0.0978
     62 H24        10.8495    1.0218   -5.7385 H         1 <0>         0.0921
     63 H25        12.9675   -0.0061   -4.9599 H         1 <0>         0.1341
     64 H26        13.1509   -0.8195   -6.5325 H         1 <0>         0.1344
     65 H27        13.7210    0.4580   -8.4865 H         1 <0>         0.1353
     66 H28        12.1358    1.2351   -8.2586 H         1 <0>         0.1321
     67 H29        13.7131    2.5964   -9.6791 H         1 <0>         0.1136
     68 H30        13.1837    3.4514   -8.2061 H         1 <0>         0.0757
     69 H31        16.5499    2.5039   -6.5944 H         1 <0>         0.1147
     70 H32        15.0639    3.3901   -6.1616 H         1 <0>         0.0767
     71 H33        14.9619    1.1430   -5.1855 H         1 <0>         0.1347
     72 H34        15.2989    0.4065   -6.7707 H         1 <0>         0.1344
     73 H35        16.0049    5.1483   -8.8484 H         1 <0>         0.1311
     74 H36        17.7865    5.6495  -10.4707 H         1 <0>         0.1323
     75 H37        18.9616    3.8193  -11.6196 H         1 <0>         0.1330
     76 H38        18.3615    1.4786  -11.1520 H         1 <0>         0.1338
     77 H39        17.1016   -0.1871  -11.2412 H         1 <0>         0.0600
     78 H40        18.3058   -0.2272   -9.9311 H         1 <0>         0.0602
     79 H41        16.8848   -1.2971   -9.8668 H         1 <0>         0.1014
     80 H42         2.1791    1.0538   -3.6426 H         1 <0>         0.3899
     81 H43         0.1999   -0.1718   -2.0217 H         1 <0>         0.4328
     82 H44        12.9708    2.0858   -6.1646 H         1 <0>         0.4191
@<TRIPOS>BOND
     1    1    2 1
     2    1   39 1
     3    1   40 1
     4    1   41 1
     5    2    3 1
     6    2    4 1
     7    2    5 1
     8    3   42 1
     9    3   43 1
    10    3   44 1
    11    4   45 1
    12    4   46 1
    13    4   47 1
    14    5    6 1
    15    5   48 1
    16    5   81 1
    17    6    7 1
    18    6   49 1
    19    6   50 1
    20    7    8 1
    21    7   38 1
    22    7   51 1
    23    8    9 1
    24    8   52 1
    25    8   53 1
    26    9   10 1
    27   10   15 ar
    28   10   11 ar
    29   11   12 ar
    30   11   54 1
    31   12   13 ar
    32   12   55 1
    33   13   14 ar
    34   13   56 1
    35   14   20 1
    36   14   15 ar
    37   15   16 1
    38   16   17 1
    39   17   18 1
    40   17   57 1
    41   17   58 1
    42   18   19 2
    43   18   20 am
    44   20   21 1
    45   21   22 1
    46   21   59 1
    47   21   60 1
    48   22   23 1
    49   22   61 1
    50   22   62 1
    51   23   24 1
    52   23   63 1
    53   23   64 1
    54   24   29 1
    55   24   25 1
    56   24   82 1
    57   25   26 1
    58   25   65 1
    59   25   66 1
    60   26   27 1
    61   26   67 1
    62   26   68 1
    63   27   28 1
    64   27   30 1
    65   28   29 1
    66   28   69 1
    67   28   70 1
    68   29   71 1
    69   29   72 1
    70   30   35 ar
    71   30   31 ar
    72   31   32 ar
    73   31   73 1
    74   32   33 ar
    75   32   74 1
    76   33   34 ar
    77   33   75 1
    78   34   35 ar
    79   34   76 1
    80   35   36 1
    81   36   37 1
    82   37   77 1
    83   37   78 1
    84   37   79 1
    85   38   80 1
@<TRIPOS>MOLECULE
CHEMBL143463
   81    84     0     0     0
SMALL
USER_CHARGES

@<TRIPOS>ATOM
      1 C1         -0.0224    1.4861    0.0218 C.3       1 <0>        -0.1791
      2 C2         -0.0004   -0.0437    0.0050 C.3       1 <0>         0.0548
      3 C3          0.7396   -0.5567    1.2419 C.3       1 <0>        -0.1797
      4 C4         -1.4354   -0.5744    0.0125 C.3       1 <0>        -0.1779
      5 N1          0.6879   -0.5102   -1.2060 N.4       1 <0>        -0.4983
      6 C5          2.0657   -0.0006   -1.2132 C.3       1 <0>        -0.0511
      7 C6          2.7825   -0.4865   -2.4745 C.3       1 <0>         0.0879
      8 C7          4.2513   -0.0612   -2.4222 C.3       1 <0>         0.0286
      9 O1          4.9472   -0.6133   -3.5415 O.3       1 <0>        -0.2874
     10 C8          6.2733   -0.3290   -3.6457 C.ar      1 <0>         0.1793
     11 C9          6.8931    0.4599   -2.6878 C.ar      1 <0>        -0.2196
     12 C10         8.2415    0.7454   -2.7986 C.ar      1 <0>        -0.0398
     13 C11         8.9782    0.2492   -3.8559 C.ar      1 <0>        -0.1688
     14 C12         8.3711   -0.5446   -4.8245 C.ar      1 <0>         0.2088
     15 C13         7.0121   -0.8322   -4.7079 C.ar      1 <0>        -0.1681
     16 S1          6.2372   -1.8358   -5.9357 S.3       1 <0>        -0.0582
     17 C14         7.2190   -1.4693   -7.4218 C.3       1 <0>        -0.1346
     18 C15         8.6767   -1.4669   -7.0501 C.2       1 <0>         0.5198
     19 O2          9.4776   -1.8674   -7.8683 O.2       1 <0>        -0.4984
     20 N2          9.1329   -1.0398   -5.8797 N.am      1 <0>        -0.5412
     21 C16        10.5812   -1.1147   -5.6721 C.3       1 <0>         0.0966
     22 C17        11.2439    0.1402   -6.2439 C.3       1 <0>        -0.1318
     23 C18        12.7565    0.0621   -6.0271 C.3       1 <0>         0.0598
     24 N3         13.3928    1.2669   -6.5761 N.3       1 <0>        -0.5330
     25 C19        13.2441    1.3218   -8.0366 C.3       1 <0>         0.0391
     26 C20        13.7573    2.6719   -8.5485 C.3       1 <0>         0.1546
     27 N4         15.1289    2.8680   -8.0552 N.pl3     1 <0>        -0.6677
     28 C21        15.3827    2.6937   -6.6170 C.3       1 <0>         0.1543
     29 C22        14.8056    1.3427   -6.1811 C.3       1 <0>         0.0419
     30 C23        16.1651    3.2118   -8.9310 C.ar      1 <0>         0.1365
     31 C24        16.4518    4.5461   -9.1795 C.ar      1 <0>        -0.0867
     32 C25        17.4759    4.8831  -10.0445 C.ar      1 <0>        -0.1510
     33 C26        18.2163    3.8931  -10.6636 C.ar      1 <0>        -0.0826
     34 C27        17.9362    2.5609  -10.4207 C.ar      1 <0>        -0.2062
     35 C28        16.9151    2.2149   -9.5512 C.ar      1 <0>         0.1178
     36 O3         16.6419    0.9050   -9.3074 O.3       1 <0>        -0.3064
     37 C29        17.4518   -0.0625   -9.9784 C.3       1 <0>         0.0251
     38 O4          2.1612    0.0871   -3.6265 O.3       1 <0>        -0.5401
     39 H1          0.9999    1.8642    0.0165 H         1 <0>         0.0807
     40 H2         -0.5496    1.8516   -0.8594 H         1 <0>         0.0837
     41 H3         -0.5331    1.8323    0.9204 H         1 <0>         0.1072
     42 H4          0.2289   -0.2106    2.1405 H         1 <0>         0.1073
     43 H5          0.7553   -1.6466    1.2300 H         1 <0>         0.0838
     44 H6          1.7619   -0.1786    1.2366 H         1 <0>         0.0812
     45 H7         -1.9626   -0.2089   -0.8687 H         1 <0>         0.0835
     46 H8         -1.4197   -1.6642    0.0006 H         1 <0>         0.0834
     47 H9         -1.9461   -0.2282    0.9111 H         1 <0>         0.1076
     48 H10         0.7024   -1.5190   -1.2171 H         1 <0>         0.4289
     49 H11         2.0500    1.0892   -1.2012 H         1 <0>         0.1421
     50 H12         2.5929   -0.3661   -0.3320 H         1 <0>         0.1477
     51 H13         2.7208   -1.5733   -2.5317 H         1 <0>         0.1348
     52 H14         4.3160    1.0264   -2.4547 H         1 <0>         0.0800
     53 H15         4.7021   -0.4246   -1.4988 H         1 <0>         0.0838
     54 H16         6.3238    0.8501   -1.8570 H         1 <0>         0.1337
     55 H17         8.7220    1.3614   -2.0529 H         1 <0>         0.1398
     56 H18        10.0308    0.4785   -3.9318 H         1 <0>         0.1432
     57 H19         7.0359   -2.2325   -8.1782 H         1 <0>         0.1522
     58 H20         6.9397   -0.4906   -7.8121 H         1 <0>         0.1263
     59 H21        10.7923   -1.1828   -4.6049 H         1 <0>         0.0924
     60 H22        10.9756   -1.9962   -6.1775 H         1 <0>         0.0980
     61 H23        11.0329    0.2084   -7.3111 H         1 <0>         0.0736
     62 H24        10.8495    1.0218   -5.7385 H         1 <0>         0.0765
     63 H25        12.9675   -0.0061   -4.9599 H         1 <0>         0.0759
     64 H26        13.1509   -0.8195   -6.5325 H         1 <0>         0.0371
     65 H27        13.8217    0.5170   -8.4914 H         1 <0>         0.0409
     66 H28        12.1924    1.2089   -8.2996 H         1 <0>         0.0767
     67 H29        13.7563    2.6745   -9.6385 H         1 <0>         0.0685
     68 H30        13.1167    3.4718   -8.1771 H         1 <0>         0.0549
     69 H31        16.4564    2.7107   -6.4299 H         1 <0>         0.0696
     70 H32        14.8984    3.4956   -6.0599 H         1 <0>         0.0560
     71 H33        14.8863    1.2450   -5.0985 H         1 <0>         0.0768
     72 H34        15.3614    0.5376   -6.6618 H         1 <0>         0.0408
     73 H35        15.8748    5.3214   -8.6974 H         1 <0>         0.1284
     74 H36        17.6981    5.9222  -10.2375 H         1 <0>         0.1252
     75 H37        19.0153    4.1610  -11.3390 H         1 <0>         0.1253
     76 H38        18.5164    1.7901  -10.9060 H         1 <0>         0.1273
     77 H39        17.1292   -1.0647   -9.6964 H         1 <0>         0.0971
     78 H40        17.3491    0.0625  -11.0563 H         1 <0>         0.0545
     79 H41        18.4948    0.0770   -9.6942 H         1 <0>         0.0546
     80 H42         2.1791    1.0538   -3.6426 H         1 <0>         0.3896
     81 H43         0.1999   -0.1718   -2.0217 H         1 <0>         0.4324
@<TRIPOS>BOND
     1    1    2 1
     2    1   39 1
     3    1   40 1
     4    1   41 1
     5    2    3 1
     6    2    4 1
     7    2    5 1
     8    3   42 1
     9    3   43 1
    10    3   44 1
    11    4   45 1
    12    4   46 1
    13    4   47 1
    14    5    6 1
    15    5   48 1
    16    5   81 1
    17    6    7 1
    18    6   49 1
    19    6   50 1
    20    7    8 1
    21    7   38 1
    22    7   51 1
    23    8    9 1
    24    8   52 1
    25    8   53 1
    26    9   10 1
    27   10   15 ar
    28   10   11 ar
    29   11   12 ar
    30   11   54 1
    31   12   13 ar
    32   12   55 1
    33   13   14 ar
    34   13   56 1
    35   14   20 1
    36   14   15 ar
    37   15   16 1
    38   16   17 1
    39   17   18 1
    40   17   57 1
    41   17   58 1
    42   18   19 2
    43   18   20 am
    44   20   21 1
    45   21   22 1
    46   21   59 1
    47   21   60 1
    48   22   23 1
    49   22   61 1
    50   22   62 1
    51   23   24 1
    52   23   63 1
    53   23   64 1
    54   24   29 1
    55   24   25 1
    56   25   26 1
    57   25   65 1
    58   25   66 1
    59   26   27 1
    60   26   67 1
    61   26   68 1
    62   27   28 1
    63   27   30 1
    64   28   29 1
    65   28   69 1
    66   28   70 1
    67   29   71 1
    68   29   72 1
    69   30   35 ar
    70   30   31 ar
    71   31   32 ar
    72   31   73 1
    73   32   33 ar
    74   32   74 1
    75   33   34 ar
    76   33   75 1
    77   34   35 ar
    78   34   76 1
    79   35   36 1
    80   36   37 1
    81   37   77 1
    82   37   78 1
    83   37   79 1
    84   38   80 1
@<TRIPOS>MOLECULE
CHEMBL143463
   82    85     0     0     0
SMALL
USER_CHARGES

@<TRIPOS>ATOM
      1 C1         -0.0188    1.4873    0.0200 C.3       1 <0>        -0.1794
      2 C2          0.0024   -0.0425    0.0031 C.3       1 <0>         0.0550
      3 C3          0.7426   -0.5560    1.2397 C.3       1 <0>        -0.1792
      4 C4         -1.4328   -0.5726    0.0110 C.3       1 <0>        -0.1787
      5 N1          0.6901   -0.5093   -1.2082 N.4       1 <0>        -0.4979
      6 C5          2.0681   -0.0004   -1.2159 C.3       1 <0>        -0.0513
      7 C6          2.7843   -0.4865   -2.4775 C.3       1 <0>         0.0874
      8 C7          4.2195    0.0436   -2.4855 C.3       1 <0>         0.0277
      9 O1          4.8518   -0.3122   -3.7166 O.3       1 <0>        -0.2854
     10 C8          6.1412    0.0861   -3.8862 C.ar      1 <0>         0.1866
     11 C9          6.7864    0.7993   -2.8865 C.ar      1 <0>        -0.2129
     12 C10         8.0975    1.2013   -3.0643 C.ar      1 <0>        -0.0394
     13 C11         8.7718    0.8966   -4.2301 C.ar      1 <0>        -0.1760
     14 C12         8.1387    0.1810   -5.2420 C.ar      1 <0>         0.1979
     15 C13         6.8178   -0.2247   -5.0580 C.ar      1 <0>        -0.1660
     16 S1          6.0097   -1.1296   -6.3398 S.3       1 <0>        -0.0403
     17 C14         6.8314   -0.5092   -7.8387 C.3       1 <0>        -0.1406
     18 C15         8.3123   -0.4373   -7.5840 C.2       1 <0>         0.5241
     19 O2          9.0647   -0.6713   -8.5062 O.2       1 <0>        -0.5010
     20 N2          8.8381   -0.1209   -6.4076 N.am      1 <0>        -0.5423
     21 C16        10.3007   -0.1062   -6.3242 C.3       1 <0>         0.1018
     22 C17        10.8239    1.2571   -6.7810 C.3       1 <0>        -0.1704
     23 C18        12.3513    1.2724   -6.6940 C.3       1 <0>        -0.0050
     24 N3         12.8537    2.5813   -7.1326 N.4       1 <0>        -0.3775
     25 C19        12.5334    2.7758   -8.5523 C.3       1 <0>        -0.0274
     26 C20        12.9542    4.1852   -8.9814 C.3       1 <0>         0.1247
     27 N4         14.3754    4.3691   -8.6489 N.pl3     1 <0>        -0.6633
     28 C21        14.8165    4.0391   -7.2848 C.3       1 <0>         0.1234
     29 C22        14.3077    2.6365   -6.9358 C.3       1 <0>        -0.0225
     30 C23        15.2821    4.8450   -9.6031 C.ar      1 <0>         0.1087
     31 C24        15.5101    6.2078   -9.7270 C.ar      1 <0>        -0.0783
     32 C25        16.4063    6.6752  -10.6697 C.ar      1 <0>        -0.1455
     33 C26        17.0770    5.7876  -11.4906 C.ar      1 <0>        -0.0666
     34 C27        16.8548    4.4279  -11.3728 C.ar      1 <0>        -0.2012
     35 C28        15.9623    3.9510  -10.4271 C.ar      1 <0>         0.1240
     36 O3         15.7467    2.6135  -10.3066 O.3       1 <0>        -0.3198
     37 C29        16.4792    1.7566  -11.1848 C.3       1 <0>         0.0222
     38 O4          2.8041   -1.9153   -2.4933 O.3       1 <0>        -0.5408
     39 H1          1.0036    1.8649    0.0143 H         1 <0>         0.0800
     40 H2         -0.5462    1.8531   -0.8610 H         1 <0>         0.0841
     41 H3         -0.5291    1.8336    0.9187 H         1 <0>         0.1084
     42 H4          0.2324   -0.2096    2.1385 H         1 <0>         0.1085
     43 H5          0.7578   -1.6458    1.2276 H         1 <0>         0.0840
     44 H6          1.7651   -0.1783    1.2340 H         1 <0>         0.0796
     45 H7         -1.9602   -0.2068   -0.8700 H         1 <0>         0.0840
     46 H8         -1.4177   -1.6624   -0.0010 H         1 <0>         0.0841
     47 H9         -1.9431   -0.2262    0.9098 H         1 <0>         0.1089
     48 H10         0.7041   -1.5181   -1.2194 H         1 <0>         0.4324
     49 H11         2.0529    1.0895   -1.2038 H         1 <0>         0.1483
     50 H12         2.5954   -0.3662   -0.3349 H         1 <0>         0.1417
     51 H13         2.2569   -0.1207   -3.3585 H         1 <0>         0.1370
     52 H14         4.2066    1.1287   -2.3839 H         1 <0>         0.0864
     53 H15         4.7726   -0.3927   -1.6536 H         1 <0>         0.0816
     54 H16         6.2660    1.0397   -1.9712 H         1 <0>         0.1380
     55 H17         8.5976    1.7581   -2.2857 H         1 <0>         0.1411
     56 H18         9.7957    1.2156   -4.3576 H         1 <0>         0.1339
     57 H19         6.6361   -1.1870   -8.6697 H         1 <0>         0.1565
     58 H20         6.4531    0.4846   -8.0782 H         1 <0>         0.1287
     59 H21        10.6077   -0.2866   -5.2940 H         1 <0>         0.1030
     60 H22        10.7091   -0.8861   -6.9669 H         1 <0>         0.1092
     61 H23        10.5169    1.4374   -7.8112 H         1 <0>         0.0977
     62 H24        10.4155    2.0370   -6.1383 H         1 <0>         0.0921
     63 H25        12.6584    1.0920   -5.6638 H         1 <0>         0.1341
     64 H26        12.7597    0.4925   -7.3367 H         1 <0>         0.1345
     65 H27        13.0694    2.0386   -9.1501 H         1 <0>         0.1353
     66 H28        11.4606    2.6552   -8.7027 H         1 <0>         0.1321
     67 H29        12.8119    4.2988  -10.0561 H         1 <0>         0.1136
     68 H30        12.3550    4.9243   -8.4495 H         1 <0>         0.0757
     69 H31        15.9053    4.0560   -7.2378 H         1 <0>         0.1147
     70 H32        14.4053    4.7633   -6.5816 H         1 <0>         0.0767
     71 H33        14.5424    2.4133   -5.8950 H         1 <0>         0.1348
     72 H34        14.7901    1.9036   -7.5825 H         1 <0>         0.1344
     73 H35        14.9872    6.9033   -9.0872 H         1 <0>         0.1311
     74 H36        16.5828    7.7364  -10.7656 H         1 <0>         0.1323
     75 H37        17.7761    6.1573  -12.2261 H         1 <0>         0.1330
     76 H38        17.3804    3.7373  -12.0156 H         1 <0>         0.1338
     77 H39        16.2344    2.0008  -12.2185 H         1 <0>         0.0600
     78 H40        17.5477    1.8968  -11.0215 H         1 <0>         0.0602
     79 H41        16.2141    0.7185  -10.9841 H         1 <0>         0.1014
     80 H42         3.2586   -2.3107   -1.7368 H         1 <0>         0.3900
     81 H43         0.2019   -0.1707   -2.0238 H         1 <0>         0.4295
     82 H44        12.4140    3.3085   -6.5885 H         1 <0>         0.4191
@<TRIPOS>BOND
     1    1    2 1
     2    1   39 1
     3    1   40 1
     4    1   41 1
     5    2    3 1
     6    2    4 1
     7    2    5 1
     8    3   42 1
     9    3   43 1
    10    3   44 1
    11    4   45 1
    12    4   46 1
    13    4   47 1
    14    5    6 1
    15    5   48 1
    16    5   81 1
    17    6    7 1
    18    6   49 1
    19    6   50 1
    20    7    8 1
    21    7   38 1
    22    7   51 1
    23    8    9 1
    24    8   52 1
    25    8   53 1
    26    9   10 1
    27   10   15 ar
    28   10   11 ar
    29   11   12 ar
    30   11   54 1
    31   12   13 ar
    32   12   55 1
    33   13   14 ar
    34   13   56 1
    35   14   20 1
    36   14   15 ar
    37   15   16 1
    38   16   17 1
    39   17   18 1
    40   17   57 1
    41   17   58 1
    42   18   19 2
    43   18   20 am
    44   20   21 1
    45   21   22 1
    46   21   59 1
    47   21   60 1
    48   22   23 1
    49   22   61 1
    50   22   62 1
    51   23   24 1
    52   23   63 1
    53   23   64 1
    54   24   29 1
    55   24   25 1
    56   24   82 1
    57   25   26 1
    58   25   65 1
    59   25   66 1
    60   26   27 1
    61   26   67 1
    62   26   68 1
    63   27   28 1
    64   27   30 1
    65   28   29 1
    66   28   69 1
    67   28   70 1
    68   29   71 1
    69   29   72 1
    70   30   35 ar
    71   30   31 ar
    72   31   32 ar
    73   31   73 1
    74   32   33 ar
    75   32   74 1
    76   33   34 ar
    77   33   75 1
    78   34   35 ar
    79   34   76 1
    80   35   36 1
    81   36   37 1
    82   37   77 1
    83   37   78 1
    84   37   79 1
    85   38   80 1
@<TRIPOS>MOLECULE
CHEMBL143463
   81    84     0     0     0
SMALL
USER_CHARGES

@<TRIPOS>ATOM
      1 C1         -0.0188    1.4873    0.0200 C.3       1 <0>        -0.1796
      2 C2          0.0024   -0.0425    0.0031 C.3       1 <0>         0.0549
      3 C3          0.7426   -0.5560    1.2397 C.3       1 <0>        -0.1792
      4 C4         -1.4328   -0.5726    0.0110 C.3       1 <0>        -0.1779
      5 N1          0.6901   -0.5093   -1.2082 N.4       1 <0>        -0.4978
      6 C5          2.0681   -0.0004   -1.2159 C.3       1 <0>        -0.0514
      7 C6          2.7843   -0.4865   -2.4775 C.3       1 <0>         0.0876
      8 C7          4.2195    0.0436   -2.4855 C.3       1 <0>         0.0286
      9 O1          4.8518   -0.3122   -3.7166 O.3       1 <0>        -0.2874
     10 C8          6.1412    0.0861   -3.8862 C.ar      1 <0>         0.1794
     11 C9          6.7864    0.7993   -2.8865 C.ar      1 <0>        -0.2197
     12 C10         8.0975    1.2013   -3.0643 C.ar      1 <0>        -0.0397
     13 C11         8.7718    0.8966   -4.2301 C.ar      1 <0>        -0.1689
     14 C12         8.1387    0.1810   -5.2420 C.ar      1 <0>         0.2089
     15 C13         6.8178   -0.2247   -5.0580 C.ar      1 <0>        -0.1684
     16 S1          6.0097   -1.1296   -6.3398 S.3       1 <0>        -0.0568
     17 C14         6.8314   -0.5092   -7.8387 C.3       1 <0>        -0.1355
     18 C15         8.3123   -0.4373   -7.5840 C.2       1 <0>         0.5198
     19 O2          9.0647   -0.6713   -8.5062 O.2       1 <0>        -0.4984
     20 N2          8.8381   -0.1209   -6.4076 N.am      1 <0>        -0.5412
     21 C16        10.3007   -0.1062   -6.3242 C.3       1 <0>         0.0966
     22 C17        10.8239    1.2571   -6.7810 C.3       1 <0>        -0.1317
     23 C18        12.3513    1.2724   -6.6940 C.3       1 <0>         0.0598
     24 N3         12.8537    2.5813   -7.1326 N.3       1 <0>        -0.5330
     25 C19        12.5755    2.8012   -8.5581 C.3       1 <0>         0.0391
     26 C20        12.9487    4.2396   -8.9320 C.3       1 <0>         0.1547
     27 N4         14.3413    4.4817   -8.5256 N.pl3     1 <0>        -0.6677
     28 C21        14.7303    4.1546   -7.1454 C.3       1 <0>         0.1543
     29 C22        14.2870    2.7195   -6.8419 C.3       1 <0>         0.0419
     30 C23        15.2717    5.0097   -9.4282 C.ar      1 <0>         0.1364
     31 C24        15.4438    6.3828   -9.5260 C.ar      1 <0>        -0.0867
     32 C25        16.3635    6.9018  -10.4178 C.ar      1 <0>        -0.1510
     33 C26        17.1133    6.0557  -11.2136 C.ar      1 <0>        -0.0826
     34 C27        16.9471    4.6859  -11.1216 C.ar      1 <0>        -0.2062
     35 C28        16.0314    4.1576  -10.2267 C.ar      1 <0>         0.1178
     36 O3         15.8706    2.8104  -10.1315 O.3       1 <0>        -0.3064
     37 C29        16.6835    1.9984  -10.9810 C.3       1 <0>         0.0250
     38 O4          2.8041   -1.9153   -2.4933 O.3       1 <0>        -0.5414
     39 H1          1.0036    1.8649    0.0143 H         1 <0>         0.0813
     40 H2         -0.5462    1.8531   -0.8610 H         1 <0>         0.0839
     41 H3         -0.5291    1.8336    0.9187 H         1 <0>         0.1072
     42 H4          0.2324   -0.2096    2.1385 H         1 <0>         0.1073
     43 H5          0.7578   -1.6458    1.2276 H         1 <0>         0.0835
     44 H6          1.7651   -0.1783    1.2340 H         1 <0>         0.0807
     45 H7         -1.9602   -0.2068   -0.8700 H         1 <0>         0.0835
     46 H8         -1.4177   -1.6624   -0.0010 H         1 <0>         0.0834
     47 H9         -1.9431   -0.2262    0.9098 H         1 <0>         0.1076
     48 H10         0.7041   -1.5181   -1.2194 H         1 <0>         0.4319
     49 H11         2.0529    1.0895   -1.2038 H         1 <0>         0.1483
     50 H12         2.5954   -0.3662   -0.3349 H         1 <0>         0.1414
     51 H13         2.2569   -0.1207   -3.3585 H         1 <0>         0.1364
     52 H14         4.2066    1.1287   -2.3839 H         1 <0>         0.0845
     53 H15         4.7726   -0.3927   -1.6536 H         1 <0>         0.0794
     54 H16         6.2660    1.0397   -1.9712 H         1 <0>         0.1336
     55 H17         8.5976    1.7581   -2.2857 H         1 <0>         0.1397
     56 H18         9.7957    1.2156   -4.3576 H         1 <0>         0.1432
     57 H19         6.6361   -1.1870   -8.6697 H         1 <0>         0.1522
     58 H20         6.4531    0.4846   -8.0782 H         1 <0>         0.1259
     59 H21        10.6077   -0.2866   -5.2940 H         1 <0>         0.0924
     60 H22        10.7091   -0.8861   -6.9669 H         1 <0>         0.0980
     61 H23        10.5169    1.4375   -7.8112 H         1 <0>         0.0736
     62 H24        10.4155    2.0370   -6.1383 H         1 <0>         0.0765
     63 H25        12.6584    1.0920   -5.6638 H         1 <0>         0.0760
     64 H26        12.7597    0.4925   -7.3367 H         1 <0>         0.0371
     65 H27        13.1650    2.1055   -9.1553 H         1 <0>         0.0409
     66 H28        11.5151    2.6387   -8.7511 H         1 <0>         0.0766
     67 H29        12.8530    4.3745  -10.0094 H         1 <0>         0.0684
     68 H30        12.2896    4.9356   -8.4131 H         1 <0>         0.0548
     69 H31        15.8125    4.2332   -7.0416 H         1 <0>         0.0696
     70 H32        14.2425    4.8424   -6.4547 H         1 <0>         0.0560
     71 H33        14.4678    2.4977   -5.7901 H         1 <0>         0.0769
     72 H34        14.8527    2.0250   -7.4629 H         1 <0>         0.0408
     73 H35        14.8591    7.0460   -8.9058 H         1 <0>         0.1284
     74 H36        16.4965    7.9709  -10.4933 H         1 <0>         0.1252
     75 H37        17.8306    6.4656  -11.9092 H         1 <0>         0.1253
     76 H38        17.5345    4.0278  -11.7447 H         1 <0>         0.1274
     77 H39        16.4560    0.9470  -10.8050 H         1 <0>         0.0971
     78 H40        16.4793    2.2447  -12.0230 H         1 <0>         0.0544
     79 H41        17.7353    2.1839  -10.7632 H         1 <0>         0.0546
     80 H42         3.2586   -2.3107   -1.7368 H         1 <0>         0.3892
     81 H43         0.2019   -0.1707   -2.0238 H         1 <0>         0.4292
@<TRIPOS>BOND
     1    1    2 1
     2    1   39 1
     3    1   40 1
     4    1   41 1
     5    2    3 1
     6    2    4 1
     7    2    5 1
     8    3   42 1
     9    3   43 1
    10    3   44 1
    11    4   45 1
    12    4   46 1
    13    4   47 1
    14    5    6 1
    15    5   48 1
    16    5   81 1
    17    6    7 1
    18    6   49 1
    19    6   50 1
    20    7    8 1
    21    7   38 1
    22    7   51 1
    23    8    9 1
    24    8   52 1
    25    8   53 1
    26    9   10 1
    27   10   15 ar
    28   10   11 ar
    29   11   12 ar
    30   11   54 1
    31   12   13 ar
    32   12   55 1
    33   13   14 ar
    34   13   56 1
    35   14   20 1
    36   14   15 ar
    37   15   16 1
    38   16   17 1
    39   17   18 1
    40   17   57 1
    41   17   58 1
    42   18   19 2
    43   18   20 am
    44   20   21 1
    45   21   22 1
    46   21   59 1
    47   21   60 1
    48   22   23 1
    49   22   61 1
    50   22   62 1
    51   23   24 1
    52   23   63 1
    53   23   64 1
    54   24   29 1
    55   24   25 1
    56   25   26 1
    57   25   65 1
    58   25   66 1
    59   26   27 1
    60   26   67 1
    61   26   68 1
    62   27   28 1
    63   27   30 1
    64   28   29 1
    65   28   69 1
    66   28   70 1
    67   29   71 1
    68   29   72 1
    69   30   35 ar
    70   30   31 ar
    71   31   32 ar
    72   31   73 1
    73   32   33 ar
    74   32   74 1
    75   33   34 ar
    76   33   75 1
    77   34   35 ar
    78   34   76 1
    79   35   36 1
    80   36   37 1
    81   37   77 1
    82   37   78 1
    83   37   79 1
    84   38   80 1
@<TRIPOS>MOLECULE
CHEMBL1083368
   66    71     0     0     0
SMALL
USER_CHARGES

@<TRIPOS>ATOM
      1 C1         -0.0168    1.3857    0.0097 C.ar      1 <0>        -0.1430
      2 C2          1.1363    2.1169    0.0026 C.ar      1 <0>        -0.0377
      3 C3          2.3822    1.4660   -0.0128 C.ar      1 <0>        -0.0793
      4 C4          3.5968    2.1738   -0.0211 C.ar      1 <0>        -0.0394
      5 C5          4.7823    1.4966   -0.0369 C.ar      1 <0>        -0.1407
      6 C6          4.8276    0.1074   -0.0447 C.ar      1 <0>         0.0037
      7 C7          3.6516   -0.6280   -0.0370 C.ar      1 <0>        -0.1739
      8 C8          2.4148    0.0559   -0.0206 C.ar      1 <0>         0.0112
      9 C9          1.2107   -0.6844   -0.0131 C.ar      1 <0>        -0.1757
     10 C10         0.0021   -0.0041    0.0020 C.ar      1 <0>         0.0028
     11 C11         1.2851   -2.1528   -0.0221 C.2       1 <0>         0.5748
     12 O1          0.2620   -2.8102   -0.0163 O.2       1 <0>        -0.4956
     13 N1          2.4799   -2.7737   -0.0372 N.am      1 <0>        -0.5621
     14 C12         3.6448   -2.0983   -0.0457 C.2       1 <0>         0.5729
     15 O2          4.6971   -2.7078   -0.0602 O.2       1 <0>        -0.4889
     16 C13         2.5136   -4.2383   -0.0458 C.3       1 <0>         0.0994
     17 C14         2.5114   -4.7400   -1.4912 C.3       1 <0>        -0.1143
     18 C15         1.1838   -4.3708   -2.1593 C.3       1 <0>        -0.1408
     19 C16         1.1561   -4.9441   -3.5778 C.3       1 <0>        -0.0046
     20 N2          1.2877   -6.4049   -3.5216 N.4       1 <0>        -0.3775
     21 C17         2.5894   -6.7661   -2.9476 C.3       1 <0>        -0.0113
     22 C18         2.6722   -6.2629   -1.5049 C.3       1 <0>        -0.1365
     23 C19         1.1825   -6.9571   -4.8788 C.3       1 <0>        -0.0432
     24 C20         1.1942   -8.4855   -4.8099 C.3       1 <0>         0.0859
     25 C21         1.2104   -9.0599   -6.2280 C.3       1 <0>         0.0299
     26 O3          1.3388  -10.4817   -6.1646 O.3       1 <0>        -0.2969
     27 C22         1.3694  -11.1516   -7.3463 C.ar      1 <0>         0.1690
     28 C23         1.2841  -10.4607   -8.5398 C.ar      1 <0>        -0.2424
     29 C24         1.3156  -11.1428   -9.7477 C.ar      1 <0>        -0.0615
     30 C25         1.4315  -12.5152   -9.7780 C.ar      1 <0>        -0.1570
     31 C26         1.5191  -13.2332   -8.5890 C.ar      1 <0>         0.1320
     32 C27         1.4934  -12.5462   -7.3629 C.ar      1 <0>        -0.1321
     33 C28         1.6099  -13.5696   -6.3214 C.2       1 <0>        -0.1881
     34 C29         1.7005  -14.7548   -6.9444 C.2       1 <0>         0.0488
     35 N3          1.6394  -14.5742   -8.3005 N.pl3     1 <0>        -0.5919
     36 H1          1.6848  -15.2842   -8.9599 H         1 <0>         0.4217
     37 O4          0.0255   -8.9405   -4.1251 O.3       1 <0>        -0.5417
     38 H2         -0.9665    1.8997    0.0261 H         1 <0>         0.1431
     39 H3          1.0912    3.1960    0.0084 H         1 <0>         0.1451
     40 H4          3.5922    3.2538   -0.0153 H         1 <0>         0.1453
     41 H5          5.7074    2.0539   -0.0438 H         1 <0>         0.1437
     42 H6          5.7806   -0.4005   -0.0572 H         1 <0>         0.1473
     43 H7         -0.9265   -0.5555    0.0079 H         1 <0>         0.1463
     44 H8          3.4167   -4.5839    0.4573 H         1 <0>         0.1089
     45 H9          1.6373   -4.6250    0.4744 H         1 <0>         0.1058
     46 H10         3.3356   -4.2815   -2.0375 H         1 <0>         0.0946
     47 H11         0.3578   -4.7868   -1.5824 H         1 <0>         0.1011
     48 H12         1.0878   -3.2859   -2.2033 H         1 <0>         0.1044
     49 H13         0.2123   -4.6829   -4.0565 H         1 <0>         0.1319
     50 H14         1.9823   -4.5272   -4.1539 H         1 <0>         0.1277
     51 H15         2.7037   -7.8500   -2.9610 H         1 <0>         0.1355
     52 H16         3.3850   -6.3104   -3.5371 H         1 <0>         0.1308
     53 H17         3.6401   -6.5305   -1.0811 H         1 <0>         0.1189
     54 H18         1.8772   -6.7182   -0.9144 H         1 <0>         0.0955
     55 H19         0.2520   -6.6212   -5.3367 H         1 <0>         0.1394
     56 H20         2.0264   -6.6139   -5.4772 H         1 <0>         0.1434
     57 H21         2.0826   -8.8182   -4.2730 H         1 <0>         0.1336
     58 H22         0.2811   -8.8012   -6.7354 H         1 <0>         0.0770
     59 H23         2.0534   -8.6431   -6.7791 H         1 <0>         0.0808
     60 H24         1.1921   -9.3847   -8.5325 H         1 <0>         0.1239
     61 H25         1.2481  -10.5918  -10.6741 H         1 <0>         0.1311
     62 H26         1.4542  -13.0341  -10.7249 H         1 <0>         0.1258
     63 H27         1.6214  -13.4021   -5.2545 H         1 <0>         0.1484
     64 H28         1.7977  -15.7099   -6.4497 H         1 <0>         0.1755
     65 H29        -0.8044   -8.6803   -4.5478 H         1 <0>         0.3900
     66 H30         0.5506   -6.7861   -2.9476 H         1 <0>         0.4292
@<TRIPOS>BOND
     1    1   10 ar
     2    1    2 ar
     3    1   38 1
     4    2    3 ar
     5    2   39 1
     6    3    8 ar
     7    3    4 ar
     8    4    5 ar
     9    4   40 1
    10    5    6 ar
    11    5   41 1
    12    6    7 ar
    13    6   42 1
    14    7   14 1
    15    7    8 ar
    16    8    9 ar
    17    9   10 ar
    18    9   11 1
    19   10   43 1
    20   11   12 2
    21   11   13 am
    22   13   14 am
    23   13   16 1
    24   14   15 2
    25   16   17 1
    26   16   44 1
    27   16   45 1
    28   17   22 1
    29   17   18 1
    30   17   46 1
    31   18   19 1
    32   18   47 1
    33   18   48 1
    34   19   20 1
    35   19   49 1
    36   19   50 1
    37   20   21 1
    38   20   23 1
    39   20   66 1
    40   21   22 1
    41   21   51 1
    42   21   52 1
    43   22   53 1
    44   22   54 1
    45   23   24 1
    46   23   55 1
    47   23   56 1
    48   24   25 1
    49   24   37 1
    50   24   57 1
    51   25   26 1
    52   25   58 1
    53   25   59 1
    54   26   27 1
    55   27   32 ar
    56   27   28 ar
    57   28   29 ar
    58   28   60 1
    59   29   30 ar
    60   29   61 1
    61   30   31 ar
    62   30   62 1
    63   31   35 1
    64   31   32 ar
    65   32   33 1
    66   33   34 2
    67   33   63 1
    68   34   35 1
    69   34   64 1
    70   35   36 1
    71   37   65 1
@<TRIPOS>MOLECULE
CHEMBL1083368
   66    71     0     0     0
SMALL
USER_CHARGES

@<TRIPOS>ATOM
      1 C1         -0.1268    1.7102   -0.6243 C.ar      1 <0>        -0.1426
      2 C2          0.9992    2.4746   -0.7341 C.ar      1 <0>        -0.0379
      3 C3          2.2656    1.8642   -0.7463 C.ar      1 <0>        -0.0793
      4 C4          3.4538    2.6071   -0.8579 C.ar      1 <0>        -0.0393
      5 C5          4.6607    1.9686   -0.8660 C.ar      1 <0>        -0.1410
      6 C6          4.7537    0.5854   -0.7655 C.ar      1 <0>         0.0034
      7 C7          3.6049   -0.1838   -0.6537 C.ar      1 <0>        -0.1739
      8 C8          2.3466    0.4597   -0.6435 C.ar      1 <0>         0.0112
      9 C9          1.1700   -0.3152   -0.5305 C.ar      1 <0>        -0.1756
     10 C10        -0.0602    0.3256   -0.5224 C.ar      1 <0>         0.0031
     11 C11         1.2947   -1.7765   -0.4260 C.2       1 <0>         0.5743
     12 O1          0.2959   -2.4632   -0.3283 O.2       1 <0>        -0.4942
     13 N1          2.5090   -2.3585   -0.4383 N.am      1 <0>        -0.5621
     14 C12         3.6487   -1.6495   -0.5456 C.2       1 <0>         0.5733
     15 O2          4.7202   -2.2246   -0.5526 O.2       1 <0>        -0.4898
     16 C13         2.5930   -3.8172   -0.3320 C.3       1 <0>         0.0997
     17 C14         2.5557   -4.4336   -1.7319 C.3       1 <0>        -0.1147
     18 C15         1.1928   -4.1614   -2.3751 C.3       1 <0>        -0.1391
     19 C16         1.1337   -4.8477   -3.7415 C.3       1 <0>        -0.0110
     20 N2          1.3176   -6.2944   -3.5748 N.4       1 <0>        -0.3773
     21 C17         2.6510   -6.5669   -3.0250 C.3       1 <0>        -0.0037
     22 C18         2.7686   -5.9467   -1.6311 C.3       1 <0>        -0.1379
     23 C19         1.1825   -6.9571   -4.8788 C.3       1 <0>        -0.0432
     24 C20        -0.2555   -6.8086   -5.3798 C.3       1 <0>         0.0861
     25 C21        -0.3949   -7.4940   -6.7406 C.3       1 <0>         0.0302
     26 O3         -1.7040   -7.2562   -7.2619 O.3       1 <0>        -0.2969
     27 C22        -1.9939   -7.8000   -8.4729 C.ar      1 <0>         0.1690
     28 C23        -1.0466   -8.5496   -9.1434 C.ar      1 <0>        -0.2424
     29 C24        -1.3407   -9.1062  -10.3799 C.ar      1 <0>        -0.0615
     30 C25        -2.5772   -8.9217  -10.9584 C.ar      1 <0>        -0.1571
     31 C26        -3.5480   -8.1706  -10.3024 C.ar      1 <0>         0.1320
     32 C27        -3.2567   -7.6095   -9.0469 C.ar      1 <0>        -0.1322
     33 C28        -4.4675   -6.8988   -8.6288 C.2       1 <0>        -0.1880
     34 C29        -5.3765   -7.0667   -9.6018 C.2       1 <0>         0.0487
     35 N3         -4.8418   -7.8174  -10.6146 N.pl3     1 <0>        -0.5919
     36 H1         -5.3084   -8.0714  -11.4262 H         1 <0>         0.4217
     37 O4         -1.1504   -7.4168   -4.4463 O.3       1 <0>        -0.5417
     38 H2         -1.0926    2.1936   -0.6118 H         1 <0>         0.1432
     39 H3          0.9170    3.5486   -0.8121 H         1 <0>         0.1451
     40 H4          3.4120    3.6833   -0.9376 H         1 <0>         0.1452
     41 H5          5.5651    2.5525   -0.9531 H         1 <0>         0.1436
     42 H6          5.7226    0.1085   -0.7747 H         1 <0>         0.1471
     43 H7         -0.9683   -0.2526   -0.4367 H         1 <0>         0.1466
     44 H8          3.5251   -4.0925    0.1614 H         1 <0>         0.1085
     45 H9          1.7500   -4.1883    0.2509 H         1 <0>         0.1056
     46 H10         3.3433   -3.9947   -2.3444 H         1 <0>         0.0945
     47 H11         0.4032   -4.5555   -1.7353 H         1 <0>         0.1017
     48 H12         1.0578   -3.0872   -2.5012 H         1 <0>         0.1040
     49 H13         0.1647   -4.6558   -4.2023 H         1 <0>         0.1331
     50 H14         1.9234   -4.4527   -4.3805 H         1 <0>         0.1279
     51 H15         2.8022   -7.6442   -2.9569 H         1 <0>         0.1341
     52 H16         3.4085   -6.1352   -3.6793 H         1 <0>         0.1301
     53 H17         3.7599   -6.1486   -1.2253 H         1 <0>         0.1189
     54 H18         2.0117   -6.3779   -0.9758 H         1 <0>         0.0946
     55 H19         1.8653   -6.4967   -5.5929 H         1 <0>         0.1437
     56 H20         1.4238   -8.0150   -4.7755 H         1 <0>         0.1396
     57 H21        -0.4982   -5.7506   -5.4793 H         1 <0>         0.1333
     58 H22         0.3487   -7.0910   -7.4282 H         1 <0>         0.0810
     59 H23        -0.2392   -8.5666   -6.6248 H         1 <0>         0.0770
     60 H24        -0.0723   -8.7027   -8.7032 H         1 <0>         0.1239
     61 H25        -0.5920   -9.6902  -10.8944 H         1 <0>         0.1311
     62 H26        -2.7932   -9.3598  -11.9217 H         1 <0>         0.1258
     63 H27        -4.6032   -6.3453   -7.7114 H         1 <0>         0.1483
     64 H28        -6.3778   -6.6620   -9.5918 H         1 <0>         0.1754
     65 H29        -0.9925   -8.3607   -4.3079 H         1 <0>         0.3893
     66 H30         0.6155   -6.6512   -2.9441 H         1 <0>         0.4288
@<TRIPOS>BOND
     1    1   10 ar
     2    1    2 ar
     3    1   38 1
     4    2    3 ar
     5    2   39 1
     6    3    8 ar
     7    3    4 ar
     8    4    5 ar
     9    4   40 1
    10    5    6 ar
    11    5   41 1
    12    6    7 ar
    13    6   42 1
    14    7   14 1
    15    7    8 ar
    16    8    9 ar
    17    9   10 ar
    18    9   11 1
    19   10   43 1
    20   11   12 2
    21   11   13 am
    22   13   14 am
    23   13   16 1
    24   14   15 2
    25   16   17 1
    26   16   44 1
    27   16   45 1
    28   17   22 1
    29   17   18 1
    30   17   46 1
    31   18   19 1
    32   18   47 1
    33   18   48 1
    34   19   20 1
    35   19   49 1
    36   19   50 1
    37   20   21 1
    38   20   23 1
    39   20   66 1
    40   21   22 1
    41   21   51 1
    42   21   52 1
    43   22   53 1
    44   22   54 1
    45   23   24 1
    46   23   55 1
    47   23   56 1
    48   24   25 1
    49   24   37 1
    50   24   57 1
    51   25   26 1
    52   25   58 1
    53   25   59 1
    54   26   27 1
    55   27   32 ar
    56   27   28 ar
    57   28   29 ar
    58   28   60 1
    59   29   30 ar
    60   29   61 1
    61   30   31 ar
    62   30   62 1
    63   31   35 1
    64   31   32 ar
    65   32   33 1
    66   33   34 2
    67   33   63 1
    68   34   35 1
    69   34   64 1
    70   35   36 1
    71   37   65 1
@<TRIPOS>MOLECULE
CHEMBL230486
   69    71     0     0     0
SMALL
USER_CHARGES

@<TRIPOS>ATOM
      1 C1         -0.0187    1.5258    0.0104 C.3       1 <0>        -0.1814
      2 C2          0.0021   -0.0041    0.0020 C.3       1 <0>         0.0602
      3 C3          0.7421   -0.5109    1.2415 C.3       1 <0>        -0.1800
      4 C4         -1.4333   -0.5336    0.0129 C.3       1 <0>        -0.0888
      5 C5         -2.1387   -0.0476    1.2528 C.ar      1 <0>        -0.0989
      6 C6         -2.0929   -0.7980    2.4131 C.ar      1 <0>        -0.1092
      7 C7         -2.7399   -0.3523    3.5502 C.ar      1 <0>        -0.1107
      8 C8         -3.4324    0.8442    3.5275 C.ar      1 <0>        -0.0902
      9 C9         -3.4773    1.5947    2.3678 C.ar      1 <0>        -0.0573
     10 C10        -2.8266    1.1510    1.2315 C.ar      1 <0>        -0.0953
     11 C11        -4.2325    2.8986    2.3429 C.3       1 <0>        -0.1091
     12 C12        -3.3079    4.0222    2.7349 C.2       1 <0>         0.5157
     13 O1         -2.1497    3.7873    3.0076 O.2       1 <0>        -0.5356
     14 N1         -3.7680    5.2881    2.7824 N.am      1 <0>        -0.7255
     15 C13        -2.8692    6.3804    3.1635 C.3       1 <0>         0.1637
     16 C14        -3.6244    7.6843    3.1386 C.ar      1 <0>        -0.1175
     17 C15        -3.6741    8.4322    1.9771 C.ar      1 <0>        -0.1016
     18 C16        -4.3668    9.6282    1.9543 C.ar      1 <0>        -0.1206
     19 C17        -5.0102   10.0761    3.0928 C.ar      1 <0>        -0.1073
     20 C18        -4.9613    9.3278    4.2541 C.ar      1 <0>        -0.1193
     21 C19        -4.2722    8.1296    4.2757 C.ar      1 <0>        -0.1004
     22 N2          0.6897   -0.4778   -1.2066 N.4       1 <0>        -0.4990
     23 C20         2.0678    0.0307   -1.2170 C.3       1 <0>        -0.0509
     24 C21         2.7840   -0.4628   -2.4758 C.3       1 <0>         0.1397
     25 H1          2.2568   -0.1017   -3.3589 H         1 <0>         0.1316
     26 C22         4.1978    0.0589   -2.4865 C.ar      1 <0>        -0.1532
     27 C23         5.1927   -0.6298   -1.8171 C.ar      1 <0>        -0.0897
     28 C24         6.4892   -0.1536   -1.8250 C.ar      1 <0>        -0.1372
     29 C25         6.7930    1.0166   -2.5058 C.ar      1 <0>         0.1326
     30 C26         5.7933    1.7053   -3.1769 C.ar      1 <0>        -0.1102
     31 C27         4.4990    1.2220   -3.1703 C.ar      1 <0>        -0.0624
     32 C28         6.1198    2.9767   -3.9173 C.3       1 <0>         0.1178
     33 O2          4.9328    3.4942   -4.5216 O.3       1 <0>        -0.5752
     34 O3          8.0678    1.4875   -2.5147 O.3       1 <0>        -0.4942
     35 O4          2.8033   -1.8916   -2.4837 O.3       1 <0>        -0.5478
     36 H2          1.0039    1.9031    0.0027 H         1 <0>         0.0807
     37 H3         -0.5459    1.8868   -0.8726 H         1 <0>         0.0803
     38 H4         -0.5289    1.8773    0.9072 H         1 <0>         0.1152
     39 H5          0.2319   -0.1594    2.1383 H         1 <0>         0.1114
     40 H6          0.7568   -1.6008    1.2356 H         1 <0>         0.0817
     41 H7          1.7647   -0.1336    1.2338 H         1 <0>         0.0805
     42 H8         -1.9605   -0.1726   -0.8702 H         1 <0>         0.0955
     43 H9         -1.4185   -1.6235    0.0069 H         1 <0>         0.0965
     44 H10        -1.5520   -1.7326    2.4308 H         1 <0>         0.1240
     45 H11        -2.7047   -0.9387    4.4564 H         1 <0>         0.1295
     46 H12        -3.9385    1.1921    4.4159 H         1 <0>         0.1262
     47 H13        -2.8586    1.7393    0.3264 H         1 <0>         0.1217
     48 H14        -4.6160    3.0773    1.3384 H         1 <0>         0.1060
     49 H15        -5.0641    2.8503    3.0460 H         1 <0>         0.1086
     50 H16        -4.6943    5.4760    2.5643 H         1 <0>         0.4043
     51 H17        -2.4858    6.2017    4.1681 H         1 <0>         0.0775
     52 H18        -2.0376    6.4287    2.4605 H         1 <0>         0.0758
     53 H19        -3.1714    8.0822    1.0876 H         1 <0>         0.1221
     54 H20        -4.4051   10.2128    1.0470 H         1 <0>         0.1260
     55 H21        -5.5509   11.0109    3.0752 H         1 <0>         0.1264
     56 H22        -5.4637    9.6779    5.1437 H         1 <0>         0.1269
     57 H23        -4.2370    7.5431    5.1819 H         1 <0>         0.1240
     58 H24         0.7033   -1.4867   -1.2121 H         1 <0>         0.4291
     59 H25         2.0530    1.1205   -1.2110 H         1 <0>         0.1468
     60 H26         2.5950   -0.3304   -0.3340 H         1 <0>         0.1391
     61 H27         4.9557   -1.5406   -1.2873 H         1 <0>         0.1275
     62 H28         7.2657   -0.6914   -1.3014 H         1 <0>         0.1400
     63 H29         3.7211    1.7557   -3.6960 H         1 <0>         0.1416
     64 H30         6.5218    3.7108   -3.2190 H         1 <0>         0.0703
     65 H31         6.8594    2.7673   -4.6901 H         1 <0>         0.0650
     66 H32         5.0686    4.3140   -5.0162 H         1 <0>         0.3926
     67 H33         8.6046    1.1555   -3.2473 H         1 <0>         0.4005
     68 H34         3.2576   -2.2830   -1.7250 H         1 <0>         0.3872
     69 H35         0.2017   -0.1436   -2.0240 H         1 <0>         0.4266
@<TRIPOS>BOND
     1    1    2 1
     2    1   36 1
     3    1   37 1
     4    1   38 1
     5    2    3 1
     6    2    4 1
     7    2   22 1
     8    3   39 1
     9    3   40 1
    10    3   41 1
    11    4    5 1
    12    4   42 1
    13    4   43 1
    14    5   10 ar
    15    5    6 ar
    16    6    7 ar
    17    6   44 1
    18    7    8 ar
    19    7   45 1
    20    8    9 ar
    21    8   46 1
    22    9   10 ar
    23    9   11 1
    24   10   47 1
    25   11   12 1
    26   11   48 1
    27   11   49 1
    28   12   13 2
    29   12   14 am
    30   14   15 1
    31   14   50 1
    32   15   16 1
    33   15   51 1
    34   15   52 1
    35   16   21 ar
    36   16   17 ar
    37   17   18 ar
    38   17   53 1
    39   18   19 ar
    40   18   54 1
    41   19   20 ar
    42   19   55 1
    43   20   21 ar
    44   20   56 1
    45   21   57 1
    46   22   23 1
    47   22   58 1
    48   22   69 1
    49   23   24 1
    50   23   59 1
    51   23   60 1
    52   24   25 1
    53   24   26 1
    54   24   35 1
    55   26   31 ar
    56   26   27 ar
    57   27   28 ar
    58   27   61 1
    59   28   29 ar
    60   28   62 1
    61   29   30 ar
    62   29   34 1
    63   30   31 ar
    64   30   32 1
    65   31   63 1
    66   32   33 1
    67   32   64 1
    68   32   65 1
    69   33   66 1
    70   34   67 1
    71   35   68 1
@<TRIPOS>MOLECULE
CHEMBL63963
   71    75     0     0     0
SMALL
USER_CHARGES

@<TRIPOS>ATOM
      1 C1          8.0605    4.5789   17.2227 C.ar      1 <0>        -0.0919
      2 C2          7.4175    5.8003   17.1423 C.ar      1 <0>        -0.1120
      3 C3          6.3387    6.0700   17.9633 C.ar      1 <0>        -0.0505
      4 C4          5.9016    5.1188   18.8659 C.ar      1 <0>        -0.1448
      5 C5          6.5446    3.8955   18.9472 C.ar      1 <0>         0.0996
      6 C6          7.6251    3.6263   18.1240 C.ar      1 <0>        -0.1561
      7 F1          6.1185    2.9652   19.8294 F         1 <0>        -0.1377
      8 C7          5.6390    7.4018   17.8745 C.3       1 <0>         0.0040
      9 C8          4.5259    7.3179   16.8620 C.2       1 <0>         0.0269
     10 C9          3.1786    7.6285   17.0641 C.2       1 <0>         0.0047
     11 N1          2.5822    7.4082   15.9139 N.2       1 <0>        -0.2804
     12 N2          3.4585    6.9995   15.0662 N.pl3     1 <0>        -0.1213
     13 N3          4.6243    6.9432   15.6062 N.2       1 <0>        -0.2769
     14 C10         3.1816    6.6657   13.7328 C.ar      1 <0>         0.2124
     15 C11         4.2017    6.2276   12.8991 C.ar      1 <0>        -0.1294
     16 C12         3.9257    5.8991   11.5863 C.ar      1 <0>         0.0016
     17 C13         2.6351    6.0066   11.1018 C.ar      1 <0>        -0.6795
     18 C14         1.6169    6.4427   11.9297 C.ar      1 <0>         0.0058
     19 C15         1.8857    6.7672   13.2451 C.ar      1 <0>        -0.1262
     20 S1          2.2871    5.5878    9.4261 S.o2      1 <0>         2.6899
     21 O1          1.1824    6.3881    9.0284 O.2       1 <0>        -0.9378
     22 O2          3.5293    5.6071    8.7363 O.2       1 <0>        -0.9413
     23 N4          1.7628    4.0170    9.4128 N.pl3     1 <0>        -1.0667
     24 C16         2.6154    2.9926    9.8305 C.ar      1 <0>         0.1416
     25 C17         3.6520    2.5706    9.0077 C.ar      1 <0>        -0.0997
     26 C18         4.4935    1.5578    9.4241 C.ar      1 <0>        -0.0982
     27 C19         4.3048    0.9635   10.6584 C.ar      1 <0>        -0.0999
     28 C20         3.2738    1.3811   11.4800 C.ar      1 <0>        -0.1008
     29 C21         2.4322    2.3974   11.0722 C.ar      1 <0>        -0.1072
     30 C22         5.2244   -0.1421   11.1089 C.3       1 <0>        -0.1025
     31 C23         6.4117    0.4582   11.8645 C.3       1 <0>        -0.0090
     32 N5          7.3081   -0.6195   12.3037 N.4       1 <0>        -0.5055
     33 C24         8.4480   -0.0431   13.0292 C.3       1 <0>        -0.0434
     34 C25         9.3817   -1.1656   13.4866 C.3       1 <0>         0.1414
     35 H1          9.7441   -1.7138   12.6170 H         1 <0>         0.1342
     36 C26        10.5511   -0.5743   14.2309 C.ar      1 <0>        -0.2002
     37 C27        11.7389   -0.3015   13.5694 C.ar      1 <0>        -0.0545
     38 C28        12.7880    0.2422   14.2943 C.ar      1 <0>        -0.1637
     39 C29        12.6165    0.4924   15.6429 C.ar      1 <0>         0.1227
     40 N6         11.4725    0.2198   16.2392 N.ar      1 <0>        -0.4735
     41 C30        10.4514   -0.2920   15.5799 C.ar      1 <0>         0.1173
     42 O3          8.6697   -2.0560   14.3482 O.3       1 <0>        -0.5458
     43 H2          8.9005    4.3676   16.5776 H         1 <0>         0.1297
     44 H3          7.7588    6.5444   16.4379 H         1 <0>         0.1306
     45 H4          5.0591    5.3300   19.5077 H         1 <0>         0.1378
     46 H5          8.1272    2.6722   18.1863 H         1 <0>         0.1331
     47 H6          5.2249    7.6603   18.8490 H         1 <0>         0.1075
     48 H7          6.3520    8.1671   17.5680 H         1 <0>         0.1036
     49 H8          2.7212    7.9775   17.9780 H         1 <0>         0.2098
     50 H9          5.2101    6.1440   13.2768 H         1 <0>         0.1509
     51 H10         4.7189    5.5582   10.9373 H         1 <0>         0.1525
     52 H11         0.6099    6.5258   11.5485 H         1 <0>         0.1559
     53 H12         1.0893    7.1035   13.8925 H         1 <0>         0.1558
     54 H13         0.8636    3.8084    9.1148 H         1 <0>         0.4322
     55 H14         3.7995    3.0339    8.0433 H         1 <0>         0.1440
     56 H15         5.2996    1.2293    8.7848 H         1 <0>         0.1338
     57 H16         3.1292    0.9149   12.4434 H         1 <0>         0.1305
     58 H17         1.6300    2.7261   11.7163 H         1 <0>         0.1354
     59 H18         4.6813   -0.8212   11.7661 H         1 <0>         0.0988
     60 H19         5.5868   -0.6903   10.2393 H         1 <0>         0.1000
     61 H20         6.9547    1.1374   11.2073 H         1 <0>         0.1359
     62 H21         6.0493    1.0064   12.7342 H         1 <0>         0.1336
     63 H22         6.8054   -1.2482   12.9121 H         1 <0>         0.4328
     64 H23         8.9911    0.6360   12.3720 H         1 <0>         0.1455
     65 H24         8.0856    0.5050   13.8988 H         1 <0>         0.1375
     66 H25        11.8443   -0.5079   12.5145 H         1 <0>         0.1410
     67 H26        13.7277    0.4670   13.8116 H         1 <0>         0.1471
     68 H27        13.4289    0.9158   16.2148 H         1 <0>         0.1669
     69 H28         9.5281   -0.4970   16.1013 H         1 <0>         0.1521
     70 H29         8.3178   -1.6352   15.1446 H         1 <0>         0.3898
     71 H30         7.6436   -1.1270   11.4987 H         1 <0>         0.4303
@<TRIPOS>BOND
     1    1    6 ar
     2    1    2 ar
     3    1   43 1
     4    2    3 ar
     5    2   44 1
     6    3    4 ar
     7    3    8 1
     8    4    5 ar
     9    4   45 1
    10    5    6 ar
    11    5    7 1
    12    6   46 1
    13    8    9 1
    14    8   47 1
    15    8   48 1
    16    9   13 2
    17    9   10 1
    18   10   11 2
    19   10   49 1
    20   11   12 1
    21   12   13 1
    22   12   14 1
    23   14   19 ar
    24   14   15 ar
    25   15   16 ar
    26   15   50 1
    27   16   17 ar
    28   16   51 1
    29   17   18 ar
    30   17   20 1
    31   18   19 ar
    32   18   52 1
    33   19   53 1
    34   20   21 2
    35   20   22 2
    36   20   23 1
    37   23   24 1
    38   23   54 1
    39   24   29 ar
    40   24   25 ar
    41   25   26 ar
    42   25   55 1
    43   26   27 ar
    44   26   56 1
    45   27   28 ar
    46   27   30 1
    47   28   29 ar
    48   28   57 1
    49   29   58 1
    50   30   31 1
    51   30   59 1
    52   30   60 1
    53   31   32 1
    54   31   61 1
    55   31   62 1
    56   32   33 1
    57   32   63 1
    58   32   71 1
    59   33   34 1
    60   33   64 1
    61   33   65 1
    62   34   35 1
    63   34   36 1
    64   34   42 1
    65   36   41 ar
    66   36   37 ar
    67   37   38 ar
    68   37   66 1
    69   38   39 ar
    70   38   67 1
    71   39   40 ar
    72   39   68 1
    73   40   41 ar
    74   41   69 1
    75   42   70 1
@<TRIPOS>MOLECULE
CHEMBL63963
   70    74     0     0     0
SMALL
USER_CHARGES

@<TRIPOS>ATOM
      1 C1         -0.0167    1.3775    0.0096 C.ar      1 <0>        -0.0893
      2 C2          1.1709    2.0856    0.0021 C.ar      1 <0>        -0.1113
      3 C3          2.3781    1.4125   -0.0130 C.ar      1 <0>        -0.0536
      4 C4          2.3993    0.0305   -0.0211 C.ar      1 <0>        -0.1465
      5 C5          1.2109   -0.6795   -0.0135 C.ar      1 <0>         0.0970
      6 C6          0.0021   -0.0041    0.0020 C.ar      1 <0>        -0.1545
      7 F1          1.2304   -2.0304   -0.0218 F         1 <0>        -0.1402
      8 C7          3.6716    2.1857   -0.0212 C.3       1 <0>         0.0103
      9 C8          4.1163    2.4359    1.3968 C.2       1 <0>         0.0123
     10 C9          5.3510    2.1072    1.9625 C.2       1 <0>        -0.0090
     11 N1          5.2929    2.5100    3.2120 N.2       1 <0>        -0.2820
     12 N2          4.1404    3.0406    3.4215 N.pl3     1 <0>        -0.1059
     13 N3          3.4245    3.0131    2.3535 N.2       1 <0>        -0.2727
     14 C10         3.7230    3.5806    4.6463 C.ar      1 <0>         0.1802
     15 C11         2.4522    4.1259    4.7691 C.ar      1 <0>        -0.1268
     16 C12         2.0437    4.6567    5.9770 C.ar      1 <0>        -0.0058
     17 C13         2.8993    4.6458    7.0633 C.ar      1 <0>        -0.6149
     18 C14         4.1657    4.1034    6.9441 C.ar      1 <0>        -0.0051
     19 C15         4.5778    3.5659    5.7403 C.ar      1 <0>        -0.1267
     20 S1          2.3750    5.3249    8.6023 S.o2      1 <0>         2.6088
     21 O1          3.5535    5.6858    9.3095 O.2       1 <0>        -1.0211
     22 O2          1.3485    6.2613    8.3044 O.2       1 <0>        -1.0234
     23 N4          1.6640    4.1004    9.4610 N.2       1 <0>        -1.0812
     24 C16         1.1482    4.3489   10.7350 C.ar      1 <0>         0.2963
     25 C17         1.2256    5.6239   11.2808 C.ar      1 <0>        -0.2647
     26 C18         0.7141    5.8663   12.5406 C.ar      1 <0>        -0.0475
     27 C19         0.1258    4.8413   13.2586 C.ar      1 <0>        -0.2348
     28 C20         0.0471    3.5708   12.7182 C.ar      1 <0>        -0.0636
     29 C21         0.5514    3.3229   11.4567 C.ar      1 <0>        -0.1800
     30 C22        -0.4304    5.1093   14.6334 C.3       1 <0>        -0.0715
     31 C23        -1.8977    5.5269   14.5174 C.3       1 <0>        -0.0111
     32 N5         -2.4398    5.7882   15.8575 N.4       1 <0>        -0.5054
     33 C24        -3.8486    6.1892   15.7461 C.3       1 <0>        -0.0427
     34 C25        -4.4133    6.4612   17.1419 C.3       1 <0>         0.1404
     35 H1         -3.8440    7.2616   17.6144 H         1 <0>         0.1328
     36 C26        -5.8585    6.8726   17.0276 C.ar      1 <0>        -0.1953
     37 C27        -6.2052    8.2146   16.9841 C.ar      1 <0>        -0.0552
     38 C28        -7.5471    8.5463   16.8788 C.ar      1 <0>        -0.1653
     39 C29        -8.4882    7.5356   16.8210 C.ar      1 <0>         0.1186
     40 N6         -8.1220    6.2697   16.8654 N.ar      1 <0>        -0.4761
     41 C30        -6.8546    5.9173   16.9592 C.ar      1 <0>         0.1169
     42 O3         -4.3166    5.2760   17.9342 O.3       1 <0>        -0.5468
     43 H2         -0.9592    1.9045    0.0259 H         1 <0>         0.1338
     44 H3          1.1553    3.1655    0.0076 H         1 <0>         0.1310
     45 H4          3.3426   -0.4952   -0.0336 H         1 <0>         0.1355
     46 H5         -0.9257   -0.5570    0.0082 H         1 <0>         0.1345
     47 H6          4.4351    1.6110   -0.5454 H         1 <0>         0.1027
     48 H7          3.5219    3.1388   -0.5286 H         1 <0>         0.0993
     49 H8          6.1824    1.6214    1.4732 H         1 <0>         0.2047
     50 H9          1.7837    4.1354    3.9208 H         1 <0>         0.1472
     51 H10         1.0552    5.0810    6.0732 H         1 <0>         0.1506
     52 H11         4.8317    4.0963    7.7942 H         1 <0>         0.1515
     53 H12         5.5653    3.1384    5.6490 H         1 <0>         0.1480
     54 H13         1.6855    6.4247   10.7209 H         1 <0>         0.1017
     55 H14         0.7739    6.8573   12.9655 H         1 <0>         0.1020
     56 H15        -0.4130    2.7725   13.2817 H         1 <0>         0.1050
     57 H16         0.4856    2.3315   11.0334 H         1 <0>         0.1171
     58 H17        -0.3566    4.2052   15.2377 H         1 <0>         0.0810
     59 H18         0.1390    5.9097   15.1059 H         1 <0>         0.0798
     60 H19        -1.9714    6.4310   13.9130 H         1 <0>         0.1304
     61 H20        -2.4670    4.7265   14.0448 H         1 <0>         0.1308
     62 H21        -2.3716    4.9512   16.4169 H         1 <0>         0.4293
     63 H22        -3.9224    7.0933   15.1418 H         1 <0>         0.1429
     64 H23        -4.4180    5.3888   15.2735 H         1 <0>         0.1361
     65 H24        -5.4479    8.9831   17.0315 H         1 <0>         0.1412
     66 H25        -7.8533    9.5814   16.8426 H         1 <0>         0.1455
     67 H26        -9.5357    7.7857   16.7389 H         1 <0>         0.1651
     68 H27        -6.5925    4.8700   16.9876 H         1 <0>         0.1538
     69 H28        -4.8005    4.5208   17.5728 H         1 <0>         0.3893
     70 H29        -1.9128    6.5291   16.2949 H         1 <0>         0.4264
@<TRIPOS>BOND
     1    1    6 ar
     2    1    2 ar
     3    1   43 1
     4    2    3 ar
     5    2   44 1
     6    3    4 ar
     7    3    8 1
     8    4    5 ar
     9    4   45 1
    10    5    6 ar
    11    5    7 1
    12    6   46 1
    13    8    9 1
    14    8   47 1
    15    8   48 1
    16    9   13 2
    17    9   10 1
    18   10   11 2
    19   10   49 1
    20   11   12 1
    21   12   13 1
    22   12   14 1
    23   14   19 ar
    24   14   15 ar
    25   15   16 ar
    26   15   50 1
    27   16   17 ar
    28   16   51 1
    29   17   18 ar
    30   17   20 1
    31   18   19 ar
    32   18   52 1
    33   19   53 1
    34   20   21 2
    35   20   22 2
    36   20   23 1
    37   23   24 1
    38   24   29 ar
    39   24   25 ar
    40   25   26 ar
    41   25   54 1
    42   26   27 ar
    43   26   55 1
    44   27   28 ar
    45   27   30 1
    46   28   29 ar
    47   28   56 1
    48   29   57 1
    49   30   31 1
    50   30   58 1
    51   30   59 1
    52   31   32 1
    53   31   60 1
    54   31   61 1
    55   32   33 1
    56   32   62 1
    57   32   70 1
    58   33   34 1
    59   33   63 1
    60   33   64 1
    61   34   35 1
    62   34   36 1
    63   34   42 1
    64   36   41 ar
    65   36   37 ar
    66   37   38 ar
    67   37   65 1
    68   38   39 ar
    69   38   66 1
    70   39   40 ar
    71   39   67 1
    72   40   41 ar
    73   41   68 1
    74   42   69 1
@<TRIPOS>MOLECULE
CHEMBL251392
   44    46     0     0     0
SMALL
USER_CHARGES

@<TRIPOS>ATOM
      1 C1         -0.0167    1.3776    0.0096 C.ar      1 <0>        -0.1643
      2 C2          1.1849    2.0698    0.0019 C.ar      1 <0>        -0.0547
      3 C3          2.3651    1.3426   -0.0133 C.ar      1 <0>        -0.2005
      4 C4          2.3054   -0.0383   -0.0202 C.ar      1 <0>         0.1178
      5 N1          1.1443   -0.6632   -0.0129 N.ar      1 <0>        -0.4747
      6 C5          0.0021   -0.0041    0.0020 C.ar      1 <0>         0.1223
      7 C6          3.6964    2.0488   -0.0227 C.3       1 <0>         0.1416
      8 H1          3.5852    3.0397    0.4177 H         1 <0>         0.1337
      9 C7          4.1918    2.1840   -1.4640 C.3       1 <0>        -0.0434
     10 N2          5.4895    2.8724   -1.4731 N.4       1 <0>        -0.5061
     11 C8          5.9652    3.0022   -2.8569 C.3       1 <0>         0.0006
     12 C9          7.3168    3.7191   -2.8665 C.3       1 <0>         0.0241
     13 O1          8.2908    2.9082   -2.2064 O.3       1 <0>        -0.3281
     14 C10         9.5542    3.4030   -2.1272 C.ar      1 <0>         0.1163
     15 C11         9.8462    4.6468   -2.6696 C.ar      1 <0>        -0.2026
     16 C12        11.1275    5.1516   -2.5908 C.ar      1 <0>        -0.0463
     17 C13        12.1292    4.4115   -1.9653 C.ar      1 <0>        -0.0369
     18 C14        11.8328    3.1631   -1.4212 C.ar      1 <0>        -0.0637
     19 C15        10.5485    2.6659   -1.4989 C.ar      1 <0>        -0.1384
     20 C16        13.5085    4.9514   -1.8792 C.2       1 <0>         0.0928
     21 C17        14.5198    4.2517   -1.2774 C.2       1 <0>        -0.2232
     22 S1         15.8796    5.3889   -1.4909 S.3       1 <0>         0.1367
     23 C18        15.0447    6.6042   -2.3016 C.2       1 <0>         0.0363
     24 N3         13.8276    6.1338   -2.3858 N.2       1 <0>        -0.5137
     25 O2          4.6418    1.2932    0.7371 O.3       1 <0>        -0.5450
     26 H2         -0.9552    1.9117    0.0259 H         1 <0>         0.1472
     27 H3          1.2009    3.1496    0.0072 H         1 <0>         0.1411
     28 H4          3.2203   -0.6121   -0.0320 H         1 <0>         0.1534
     29 H5         -0.9294   -0.5505    0.0083 H         1 <0>         0.1672
     30 H6          4.3030    1.1932   -1.9044 H         1 <0>         0.1390
     31 H7          3.4707    2.7604   -2.0435 H         1 <0>         0.1456
     32 H8          5.3866    3.7896   -1.0655 H         1 <0>         0.4292
     33 H9          6.0764    2.0113   -3.2973 H         1 <0>         0.1440
     34 H10         5.2440    3.5785   -3.4365 H         1 <0>         0.1524
     35 H11         7.6277    3.8946   -3.8964 H         1 <0>         0.1120
     36 H12         7.2257    4.6730   -2.3469 H         1 <0>         0.0888
     37 H13         9.0695    5.2198   -3.1543 H         1 <0>         0.1304
     38 H14        11.3542    6.1191   -3.0137 H         1 <0>         0.1409
     39 H15        12.6070    2.5872   -0.9362 H         1 <0>         0.1386
     40 H16        10.3173    1.7002   -1.0742 H         1 <0>         0.1379
     41 H17        14.5004    3.2809   -0.8046 H         1 <0>         0.1991
     42 H18        15.4245    7.5463   -2.6685 H         1 <0>         0.2231
     43 H19         4.7910    0.3986    0.4015 H         1 <0>         0.3904
     44 H20         6.1570    2.3389   -0.9367 H         1 <0>         0.4395
@<TRIPOS>BOND
     1    1    6 ar
     2    1    2 ar
     3    1   26 1
     4    2    3 ar
     5    2   27 1
     6    3    4 ar
     7    3    7 1
     8    4    5 ar
     9    4   28 1
    10    5    6 ar
    11    6   29 1
    12    7    8 1
    13    7    9 1
    14    7   25 1
    15    9   10 1
    16    9   30 1
    17    9   31 1
    18   10   11 1
    19   10   32 1
    20   10   44 1
    21   11   12 1
    22   11   33 1
    23   11   34 1
    24   12   13 1
    25   12   35 1
    26   12   36 1
    27   13   14 1
    28   14   19 ar
    29   14   15 ar
    30   15   16 ar
    31   15   37 1
    32   16   17 ar
    33   16   38 1
    34   17   18 ar
    35   17   20 1
    36   18   19 ar
    37   18   39 1
    38   19   40 1
    39   20   24 1
    40   20   21 2
    41   21   22 1
    42   21   41 1
    43   22   23 1
    44   23   24 2
    45   23   42 1
    46   25   43 1
@<TRIPOS>MOLECULE
CHEMBL251392
   43    45     0     0     0
SMALL
USER_CHARGES

@<TRIPOS>ATOM
      1 C1         -0.0167    1.3776    0.0096 C.ar      1 <0>        -0.1693
      2 C2          1.1849    2.0698    0.0019 C.ar      1 <0>        -0.0658
      3 C3          2.3651    1.3426   -0.0133 C.ar      1 <0>        -0.1721
      4 C4          2.3054   -0.0383   -0.0202 C.ar      1 <0>         0.1097
      5 N1          1.1443   -0.6632   -0.0129 N.ar      1 <0>        -0.4803
      6 C5          0.0021   -0.0041    0.0020 C.ar      1 <0>         0.0993
      7 C6          3.6964    2.0488   -0.0227 C.3       1 <0>         0.1587
      8 H1          3.5852    3.0397    0.4177 H         1 <0>         0.1072
      9 C7          4.1918    2.1840   -1.4640 C.3       1 <0>         0.0314
     10 N2          5.4895    2.8724   -1.4731 N.3       1 <0>        -0.6727
     11 C8          5.9972    3.0204   -2.8436 C.3       1 <0>         0.0594
     12 C9          7.3471    3.7400   -2.8125 C.3       1 <0>         0.0617
     13 O1          8.3071    2.9228   -2.1399 O.3       1 <0>        -0.2946
     14 C10         9.5672    3.4190   -2.0248 C.ar      1 <0>         0.1421
     15 C11         9.8691    4.6701   -2.5447 C.ar      1 <0>        -0.2149
     16 C12        11.1470    5.1763   -2.4296 C.ar      1 <0>        -0.0432
     17 C13        12.1355    4.4304   -1.7899 C.ar      1 <0>        -0.0675
     18 C14        11.8291    3.1747   -1.2685 C.ar      1 <0>        -0.0611
     19 C15        10.5482    2.6760   -1.3826 C.ar      1 <0>        -0.1508
     20 C16        13.5112    4.9718   -1.6647 C.2       1 <0>         0.1091
     21 C17        14.5096    4.2667   -1.0481 C.2       1 <0>        -0.2265
     22 S1         15.8715    5.4091   -1.2153 S.3       1 <0>         0.1108
     23 C18        15.0532    6.6328   -2.0302 C.2       1 <0>         0.0341
     24 N3         13.8394    6.1611   -2.1489 N.2       1 <0>        -0.5114
     25 O2          4.6418    1.2932    0.7371 O.3       1 <0>        -0.5371
     26 H2         -0.9552    1.9117    0.0259 H         1 <0>         0.1382
     27 H3          1.2009    3.1496    0.0072 H         1 <0>         0.1354
     28 H4          3.2203   -0.6121   -0.0320 H         1 <0>         0.1535
     29 H5         -0.9294   -0.5505    0.0083 H         1 <0>         0.1583
     30 H6          4.3030    1.1932   -1.9044 H         1 <0>         0.0799
     31 H7          3.4707    2.7604   -2.0435 H         1 <0>         0.0407
     32 H8          5.4272    3.7677   -1.0120 H         1 <0>         0.3430
     33 H9          6.1210    2.0353   -3.2936 H         1 <0>         0.0863
     34 H10         5.2886    3.6025   -3.4328 H         1 <0>         0.0529
     35 H11         7.6817    3.9289   -3.8325 H         1 <0>         0.0692
     36 H12         7.2417    4.6872   -2.2834 H         1 <0>         0.0632
     37 H13         9.1028    5.2475   -3.0403 H         1 <0>         0.1286
     38 H14        11.3815    6.1495   -2.8349 H         1 <0>         0.1338
     39 H15        12.5931    2.5943   -0.7726 H         1 <0>         0.1315
     40 H16        10.3092    1.7047   -0.9754 H         1 <0>         0.1361
     41 H17        14.4812    3.2900   -0.5880 H         1 <0>         0.1981
     42 H18        15.4394    7.5802   -2.3764 H         1 <0>         0.2198
     43 H19         4.7910    0.3986    0.4015 H         1 <0>         0.3751
@<TRIPOS>BOND
     1    1    6 ar
     2    1    2 ar
     3    1   26 1
     4    2    3 ar
     5    2   27 1
     6    3    4 ar
     7    3    7 1
     8    4    5 ar
     9    4   28 1
    10    5    6 ar
    11    6   29 1
    12    7    8 1
    13    7    9 1
    14    7   25 1
    15    9   10 1
    16    9   30 1
    17    9   31 1
    18   10   11 1
    19   10   32 1
    20   11   12 1
    21   11   33 1
    22   11   34 1
    23   12   13 1
    24   12   35 1
    25   12   36 1
    26   13   14 1
    27   14   19 ar
    28   14   15 ar
    29   15   16 ar
    30   15   37 1
    31   16   17 ar
    32   16   38 1
    33   17   18 ar
    34   17   20 1
    35   18   19 ar
    36   18   39 1
    37   19   40 1
    38   20   24 1
    39   20   21 2
    40   21   22 1
    41   21   41 1
    42   22   23 1
    43   23   24 2
    44   23   42 1
    45   25   43 1
@<TRIPOS>MOLECULE
CHEMBL160788
   63    64     0     0     0
SMALL
USER_CHARGES

@<TRIPOS>ATOM
      1 C1         -0.0187    1.5258    0.0104 C.3       1 <0>        -0.1851
      2 C2          0.0021   -0.0041    0.0020 C.3       1 <0>         0.0258
      3 C3         -1.4333   -0.5336    0.0129 C.3       1 <0>        -0.1479
      4 C4         -1.4157   -2.0577   -0.1212 C.3       1 <0>        -0.1347
      5 C5         -2.8510   -2.5872   -0.1103 C.3       1 <0>        -0.1181
      6 C6         -2.8334   -4.1113   -0.2444 C.3       1 <0>        -0.1340
      7 C7         -4.2688   -4.6408   -0.2336 C.3       1 <0>         0.1348
      8 N1         -4.2519   -6.1001   -0.3620 N.am      1 <0>        -0.7132
      9 C8         -5.4103   -6.7888   -0.3761 C.2       1 <0>         0.6465
     10 O1         -6.4687   -6.1994   -0.2823 O.2       1 <0>        -0.5669
     11 O2         -5.3948   -8.1299   -0.4940 O.3       1 <0>        -0.3594
     12 C9         -6.6595   -8.7952   -0.5019 C.3       1 <0>         0.1294
     13 C10        -6.4449  -10.2804   -0.6404 C.ar      1 <0>        -0.1041
     14 C11        -6.3884  -10.8564   -1.8957 C.ar      1 <0>        -0.0937
     15 C12        -6.1916  -12.2188   -2.0228 C.ar      1 <0>        -0.1225
     16 C13        -6.0509  -13.0050   -0.8946 C.ar      1 <0>        -0.1051
     17 C14        -6.1066  -12.4288    0.3607 C.ar      1 <0>        -0.1226
     18 C15        -6.2991  -11.0658    0.4877 C.ar      1 <0>        -0.0939
     19 N2          0.7126   -0.4907    1.1921 N.4       1 <0>        -0.5058
     20 C16         2.1220   -0.0825    1.1220 C.3       1 <0>        -0.0465
     21 C17         2.8620   -0.5894    2.3616 C.3       1 <0>         0.1376
     22 C18         4.2758   -0.0677    2.3509 C.ar      1 <0>        -0.1364
     23 C19         5.2318   -0.6825    1.5638 C.ar      1 <0>        -0.0989
     24 C20         6.5301   -0.2078    1.5505 C.ar      1 <0>        -0.1234
     25 C21         6.8755    0.8868    2.3268 C.ar      1 <0>         0.1048
     26 C22         5.9132    1.5058    3.1187 C.ar      1 <0>         0.0902
     27 C23         4.6125    1.0279    3.1237 C.ar      1 <0>        -0.1130
     28 O3          6.2473    2.5803    3.8823 O.3       1 <0>        -0.4823
     29 O4          8.1524    1.3547    2.3152 O.3       1 <0>        -0.4834
     30 O5          2.8814   -2.0182    2.3537 O.3       1 <0>        -0.5454
     31 H1          1.0039    1.9031    0.0027 H         1 <0>         0.0809
     32 H2         -0.5459    1.8868   -0.8726 H         1 <0>         0.1077
     33 H3         -0.5289    1.8773    0.9072 H         1 <0>         0.0835
     34 H4          0.5123   -0.3556   -0.8948 H         1 <0>         0.1396
     35 H5         -1.9156   -0.2570    0.9504 H         1 <0>         0.0912
     36 H6         -1.9862   -0.1019   -0.8214 H         1 <0>         0.1151
     37 H7         -0.9334   -2.3344   -1.0587 H         1 <0>         0.0803
     38 H8         -0.8628   -2.4894    0.7131 H         1 <0>         0.0598
     39 H9         -3.3333   -2.3105    0.8272 H         1 <0>         0.0740
     40 H10        -3.4039   -2.1555   -0.9446 H         1 <0>         0.0774
     41 H11        -2.3511   -4.3879   -1.1819 H         1 <0>         0.0752
     42 H12        -2.2805   -4.5430    0.5898 H         1 <0>         0.0735
     43 H13        -4.7511   -4.3641    0.7040 H         1 <0>         0.0725
     44 H14        -4.8217   -4.2091   -1.0678 H         1 <0>         0.0732
     45 H15        -3.4070   -6.5706   -0.4368 H         1 <0>         0.4077
     46 H16        -7.1841   -8.5893    0.4312 H         1 <0>         0.0793
     47 H17        -7.2547   -8.4342   -1.3406 H         1 <0>         0.0795
     48 H18        -6.4983  -10.2421   -2.7772 H         1 <0>         0.1246
     49 H19        -6.1482  -12.6689   -3.0036 H         1 <0>         0.1275
     50 H20        -5.8979  -14.0695   -0.9938 H         1 <0>         0.1269
     51 H21        -5.9970  -13.0431    1.2422 H         1 <0>         0.1274
     52 H22        -6.3388  -10.6151    1.4684 H         1 <0>         0.1244
     53 H23         0.2896   -0.0986    2.0201 H         1 <0>         0.4269
     54 H24         2.5788   -0.5061    0.2276 H         1 <0>         0.1375
     55 H25         2.1837    1.0050    1.0814 H         1 <0>         0.1460
     56 H26         2.3518   -0.2378    3.2583 H         1 <0>         0.1318
     57 H27         4.9639   -1.5357    0.9582 H         1 <0>         0.1304
     58 H28         7.2752   -0.6902    0.9353 H         1 <0>         0.1434
     59 H29         3.8628    1.5088    3.7345 H         1 <0>         0.1390
     60 H30         6.1400    3.4303    3.4338 H         1 <0>         0.3946
     61 H31         8.3180    2.0292    1.6424 H         1 <0>         0.3972
     62 H32         3.3210   -2.4014    1.5823 H         1 <0>         0.3889
     63 H33         0.6554   -1.4974    1.2298 H         1 <0>         0.4302
@<TRIPOS>BOND
     1    1    2 1
     2    1   31 1
     3    1   32 1
     4    1   33 1
     5    2    3 1
     6    2   19 1
     7    2   34 1
     8    3    4 1
     9    3   35 1
    10    3   36 1
    11    4    5 1
    12    4   37 1
    13    4   38 1
    14    5    6 1
    15    5   39 1
    16    5   40 1
    17    6    7 1
    18    6   41 1
    19    6   42 1
    20    7    8 1
    21    7   43 1
    22    7   44 1
    23    8    9 am
    24    8   45 1
    25    9   10 2
    26    9   11 1
    27   11   12 1
    28   12   13 1
    29   12   46 1
    30   12   47 1
    31   13   18 ar
    32   13   14 ar
    33   14   15 ar
    34   14   48 1
    35   15   16 ar
    36   15   49 1
    37   16   17 ar
    38   16   50 1
    39   17   18 ar
    40   17   51 1
    41   18   52 1
    42   19   20 1
    43   19   53 1
    44   19   63 1
    45   20   21 1
    46   20   54 1
    47   20   55 1
    48   21   22 1
    49   21   30 1
    50   21   56 1
    51   22   27 ar
    52   22   23 ar
    53   23   24 ar
    54   23   57 1
    55   24   25 ar
    56   24   58 1
    57   25   26 ar
    58   25   29 1
    59   26   27 ar
    60   26   28 1
    61   27   59 1
    62   28   60 1
    63   29   61 1
    64   30   62 1
@<TRIPOS>MOLECULE
CHEMBL160788
   63    64     0     0     0
SMALL
USER_CHARGES

@<TRIPOS>ATOM
      1 C1         -0.0187    1.5258    0.0104 C.3       1 <0>        -0.1852
      2 C2          0.0021   -0.0041    0.0020 C.3       1 <0>         0.0254
      3 C3         -1.4333   -0.5336    0.0129 C.3       1 <0>        -0.1475
      4 C4         -1.4157   -2.0577   -0.1212 C.3       1 <0>        -0.1345
      5 C5         -2.8510   -2.5872   -0.1103 C.3       1 <0>        -0.1182
      6 C6         -2.8334   -4.1113   -0.2444 C.3       1 <0>        -0.1340
      7 C7         -4.2688   -4.6408   -0.2336 C.3       1 <0>         0.1348
      8 N1         -4.2519   -6.1001   -0.3620 N.am      1 <0>        -0.7132
      9 C8         -5.4103   -6.7888   -0.3761 C.2       1 <0>         0.6465
     10 O1         -6.4687   -6.1994   -0.2823 O.2       1 <0>        -0.5667
     11 O2         -5.3948   -8.1299   -0.4940 O.3       1 <0>        -0.3594
     12 C9         -6.6595   -8.7952   -0.5019 C.3       1 <0>         0.1293
     13 C10        -6.4449  -10.2804   -0.6404 C.ar      1 <0>        -0.1041
     14 C11        -6.3884  -10.8564   -1.8957 C.ar      1 <0>        -0.0937
     15 C12        -6.1916  -12.2188   -2.0228 C.ar      1 <0>        -0.1224
     16 C13        -6.0509  -13.0050   -0.8946 C.ar      1 <0>        -0.1051
     17 C14        -6.1066  -12.4288    0.3607 C.ar      1 <0>        -0.1227
     18 C15        -6.2991  -11.0658    0.4877 C.ar      1 <0>        -0.0940
     19 N2          0.7126   -0.4907    1.1921 N.4       1 <0>        -0.5047
     20 C16         2.1220   -0.0825    1.1220 C.3       1 <0>        -0.0476
     21 C17         2.8620   -0.5894    2.3616 C.3       1 <0>         0.1381
     22 C18         4.3078   -0.1706    2.2896 C.ar      1 <0>        -0.1368
     23 C19         4.6874    1.0791    2.7430 C.ar      1 <0>        -0.0979
     24 C20         6.0124    1.4679    2.6792 C.ar      1 <0>        -0.1233
     25 C21         6.9637    0.6042    2.1604 C.ar      1 <0>         0.1047
     26 C22         6.5818   -0.6539    1.7045 C.ar      1 <0>         0.0899
     27 C23         5.2526   -1.0392    1.7757 C.ar      1 <0>        -0.1136
     28 O3          7.5116   -1.5051    1.1944 O.3       1 <0>        -0.4846
     29 O4          8.2676    0.9853    2.0965 O.3       1 <0>        -0.4850
     30 O5          2.2630   -0.0341    3.5341 O.3       1 <0>        -0.5465
     31 H1          1.0039    1.9031    0.0027 H         1 <0>         0.0809
     32 H2         -0.5459    1.8868   -0.8726 H         1 <0>         0.1079
     33 H3         -0.5289    1.8773    0.9072 H         1 <0>         0.0833
     34 H4          0.5123   -0.3556   -0.8948 H         1 <0>         0.1403
     35 H5         -1.9156   -0.2570    0.9504 H         1 <0>         0.0912
     36 H6         -1.9862   -0.1019   -0.8214 H         1 <0>         0.1152
     37 H7         -0.9334   -2.3344   -1.0587 H         1 <0>         0.0808
     38 H8         -0.8628   -2.4894    0.7131 H         1 <0>         0.0586
     39 H9         -3.3333   -2.3105    0.8272 H         1 <0>         0.0741
     40 H10        -3.4039   -2.1555   -0.9446 H         1 <0>         0.0777
     41 H11        -2.3511   -4.3879   -1.1819 H         1 <0>         0.0753
     42 H12        -2.2805   -4.5430    0.5898 H         1 <0>         0.0730
     43 H13        -4.7511   -4.3641    0.7040 H         1 <0>         0.0726
     44 H14        -4.8217   -4.2091   -1.0678 H         1 <0>         0.0734
     45 H15        -3.4070   -6.5706   -0.4368 H         1 <0>         0.4077
     46 H16        -7.1841   -8.5893    0.4312 H         1 <0>         0.0793
     47 H17        -7.2547   -8.4342   -1.3406 H         1 <0>         0.0795
     48 H18        -6.4983  -10.2421   -2.7772 H         1 <0>         0.1246
     49 H19        -6.1482  -12.6689   -3.0036 H         1 <0>         0.1275
     50 H20        -5.8979  -14.0695   -0.9938 H         1 <0>         0.1269
     51 H21        -5.9970  -13.0431    1.2422 H         1 <0>         0.1274
     52 H22        -6.3388  -10.6151    1.4684 H         1 <0>         0.1244
     53 H23         0.2896   -0.0986    2.0201 H         1 <0>         0.4296
     54 H24         2.5788   -0.5061    0.2276 H         1 <0>         0.1452
     55 H25         2.1837    1.0050    1.0814 H         1 <0>         0.1397
     56 H26         2.8002   -1.6769    2.4022 H         1 <0>         0.1323
     57 H27         3.9469    1.7532    3.1476 H         1 <0>         0.1306
     58 H28         6.3062    2.4450    3.0334 H         1 <0>         0.1434
     59 H29         4.9542   -2.0164    1.4260 H         1 <0>         0.1385
     60 H30         7.9173   -2.0851    1.8533 H         1 <0>         0.3969
     61 H31         8.7817    0.7620    2.8845 H         1 <0>         0.3989
     62 H32         2.2821    0.9322    3.5656 H         1 <0>         0.3888
     63 H33         0.6554   -1.4974    1.2298 H         1 <0>         0.4265
@<TRIPOS>BOND
     1    1    2 1
     2    1   31 1
     3    1   32 1
     4    1   33 1
     5    2    3 1
     6    2   19 1
     7    2   34 1
     8    3    4 1
     9    3   35 1
    10    3   36 1
    11    4    5 1
    12    4   37 1
    13    4   38 1
    14    5    6 1
    15    5   39 1
    16    5   40 1
    17    6    7 1
    18    6   41 1
    19    6   42 1
    20    7    8 1
    21    7   43 1
    22    7   44 1
    23    8    9 am
    24    8   45 1
    25    9   10 2
    26    9   11 1
    27   11   12 1
    28   12   13 1
    29   12   46 1
    30   12   47 1
    31   13   18 ar
    32   13   14 ar
    33   14   15 ar
    34   14   48 1
    35   15   16 ar
    36   15   49 1
    37   16   17 ar
    38   16   50 1
    39   17   18 ar
    40   17   51 1
    41   18   52 1
    42   19   20 1
    43   19   53 1
    44   19   63 1
    45   20   21 1
    46   20   54 1
    47   20   55 1
    48   21   22 1
    49   21   30 1
    50   21   56 1
    51   22   27 ar
    52   22   23 ar
    53   23   24 ar
    54   23   57 1
    55   24   25 ar
    56   24   58 1
    57   25   26 ar
    58   25   29 1
    59   26   27 ar
    60   26   28 1
    61   27   59 1
    62   28   60 1
    63   29   61 1
    64   30   62 1
@<TRIPOS>MOLECULE
CHEMBL160788
   63    64     0     0     0
SMALL
USER_CHARGES

@<TRIPOS>ATOM
      1 C1         -0.0187    1.5258    0.0104 C.3       1 <0>        -0.1850
      2 C2          0.0021   -0.0041    0.0020 C.3       1 <0>         0.0257
      3 C3          0.7421   -0.5109    1.2415 C.3       1 <0>        -0.1479
      4 C4          0.8719   -2.0337    1.1708 C.3       1 <0>        -0.1344
      5 C5          1.6119   -2.5406    2.4104 C.3       1 <0>        -0.1183
      6 C6          1.7418   -4.0634    2.3397 C.3       1 <0>        -0.1340
      7 C7          2.4818   -4.5703    3.5792 C.3       1 <0>         0.1347
      8 N1          2.6061   -6.0284    3.5115 N.am      1 <0>        -0.7133
      9 C8          3.2271   -6.6985    4.5024 C.2       1 <0>         0.6465
     10 O1          3.6838   -6.0932    5.4519 O.2       1 <0>        -0.5667
     11 O2          3.3414   -8.0386    4.4402 O.3       1 <0>        -0.3593
     12 C9          4.0114   -8.6836    5.5251 C.3       1 <0>         0.1294
     13 C10         4.0428  -10.1707    5.2832 C.ar      1 <0>        -0.1042
     14 C11         3.0112  -10.9677    5.7428 C.ar      1 <0>        -0.0939
     15 C12         3.0400  -12.3318    5.5209 C.ar      1 <0>        -0.1226
     16 C13         4.1003  -12.8989    4.8389 C.ar      1 <0>        -0.1051
     17 C14         5.1315  -12.1017    4.3785 C.ar      1 <0>        -0.1225
     18 C15         5.1006  -10.7371    4.5967 C.ar      1 <0>        -0.0938
     19 N2         -1.3761   -0.5125    0.0124 N.4       1 <0>        -0.5056
     20 C16        -2.0500   -0.1262   -1.2343 C.3       1 <0>        -0.0467
     21 C17        -3.4854   -0.6557   -1.2235 C.3       1 <0>         0.1377
     22 C18        -4.1376   -0.3665   -2.5509 C.ar      1 <0>        -0.1363
     23 C19        -4.6356    0.8960   -2.8142 C.ar      1 <0>        -0.0989
     24 C20        -5.2348    1.1663   -4.0303 C.ar      1 <0>        -0.1233
     25 C21        -5.3368    0.1709   -4.9888 C.ar      1 <0>         0.1048
     26 C22        -4.8351   -1.0998   -4.7240 C.ar      1 <0>         0.0902
     27 C23        -4.2314   -1.3627   -3.5048 C.ar      1 <0>        -0.1130
     28 O3         -4.9328   -2.0800   -5.6616 O.3       1 <0>        -0.4824
     29 O4         -5.9263    0.4350   -6.1856 O.3       1 <0>        -0.4834
     30 O5         -4.2221   -0.0137   -0.1809 O.3       1 <0>        -0.5450
     31 H1          1.0039    1.9031    0.0027 H         1 <0>         0.1078
     32 H2         -0.5459    1.8868   -0.8726 H         1 <0>         0.0805
     33 H3         -0.5289    1.8773    0.9072 H         1 <0>         0.0837
     34 H4          0.5123   -0.3556   -0.8948 H         1 <0>         0.1399
     35 H5          1.7350   -0.0630    1.2804 H         1 <0>         0.1152
     36 H6          0.1838   -0.2350    2.1361 H         1 <0>         0.0914
     37 H7         -0.1210   -2.4817    1.1320 H         1 <0>         0.0586
     38 H8          1.4302   -2.3096    0.2763 H         1 <0>         0.0806
     39 H9          2.6049   -2.0927    2.4492 H         1 <0>         0.0776
     40 H10         1.0536   -2.2647    3.3050 H         1 <0>         0.0742
     41 H11         0.7488   -4.5113    2.3008 H         1 <0>         0.0731
     42 H12         2.3001   -4.3393    1.4451 H         1 <0>         0.0752
     43 H13         3.4748   -4.1223    3.6180 H         1 <0>         0.0733
     44 H14         1.9235   -4.2944    4.4738 H         1 <0>         0.0726
     45 H15         2.2416   -6.5116    2.7535 H         1 <0>         0.4077
     46 H16         5.0312   -8.3058    5.5985 H         1 <0>         0.0795
     47 H17         3.4799   -8.4778    6.4542 H         1 <0>         0.0794
     48 H18         2.1828  -10.5247    6.2757 H         1 <0>         0.1244
     49 H19         2.2343  -12.9546    5.8807 H         1 <0>         0.1274
     50 H20         4.1232  -13.9647    4.6662 H         1 <0>         0.1269
     51 H21         5.9601  -12.5448    3.8460 H         1 <0>         0.1275
     52 H22         5.9044  -10.1138    4.2337 H         1 <0>         0.1246
     53 H23        -1.3629   -1.5185    0.0898 H         1 <0>         0.4265
     54 H24        -2.0643    0.9605   -1.3179 H         1 <0>         0.1394
     55 H25        -1.5132   -0.5489   -2.0836 H         1 <0>         0.1442
     56 H26        -3.4743   -1.7319   -1.0509 H         1 <0>         0.1311
     57 H27        -4.5568    1.6727   -2.0679 H         1 <0>         0.1304
     58 H28        -5.6237    2.1532   -4.2332 H         1 <0>         0.1435
     59 H29        -3.8378   -2.3470   -3.2982 H         1 <0>         0.1388
     60 H30        -4.1784   -2.1238   -6.2650 H         1 <0>         0.3946
     61 H31        -5.3143    0.7514   -6.8642 H         1 <0>         0.3972
     62 H32        -4.2734    0.9478   -0.2701 H         1 <0>         0.3890
     63 H33        -1.8730   -0.1212    0.7986 H         1 <0>         0.4305
@<TRIPOS>BOND
     1    1    2 1
     2    1   31 1
     3    1   32 1
     4    1   33 1
     5    2    3 1
     6    2   19 1
     7    2   34 1
     8    3    4 1
     9    3   35 1
    10    3   36 1
    11    4    5 1
    12    4   37 1
    13    4   38 1
    14    5    6 1
    15    5   39 1
    16    5   40 1
    17    6    7 1
    18    6   41 1
    19    6   42 1
    20    7    8 1
    21    7   43 1
    22    7   44 1
    23    8    9 am
    24    8   45 1
    25    9   10 2
    26    9   11 1
    27   11   12 1
    28   12   13 1
    29   12   46 1
    30   12   47 1
    31   13   18 ar
    32   13   14 ar
    33   14   15 ar
    34   14   48 1
    35   15   16 ar
    36   15   49 1
    37   16   17 ar
    38   16   50 1
    39   17   18 ar
    40   17   51 1
    41   18   52 1
    42   19   20 1
    43   19   53 1
    44   19   63 1
    45   20   21 1
    46   20   54 1
    47   20   55 1
    48   21   22 1
    49   21   30 1
    50   21   56 1
    51   22   27 ar
    52   22   23 ar
    53   23   24 ar
    54   23   57 1
    55   24   25 ar
    56   24   58 1
    57   25   26 ar
    58   25   29 1
    59   26   27 ar
    60   26   28 1
    61   27   59 1
    62   28   60 1
    63   29   61 1
    64   30   62 1
@<TRIPOS>MOLECULE
CHEMBL160788
   63    64     0     0     0
SMALL
USER_CHARGES

@<TRIPOS>ATOM
      1 C1         -0.0187    1.5258    0.0104 C.3       1 <0>        -0.1857
      2 C2          0.0021   -0.0041    0.0020 C.3       1 <0>         0.0257
      3 C3          0.7421   -0.5109    1.2415 C.3       1 <0>        -0.1476
      4 C4          0.8719   -2.0337    1.1708 C.3       1 <0>        -0.1346
      5 C5          1.6119   -2.5406    2.4104 C.3       1 <0>        -0.1181
      6 C6          1.7418   -4.0634    2.3397 C.3       1 <0>        -0.1339
      7 C7          2.4818   -4.5703    3.5792 C.3       1 <0>         0.1347
      8 N1          2.6061   -6.0284    3.5115 N.am      1 <0>        -0.7131
      9 C8          3.2271   -6.6985    4.5024 C.2       1 <0>         0.6464
     10 O1          3.6838   -6.0932    5.4519 O.2       1 <0>        -0.5668
     11 O2          3.3414   -8.0386    4.4402 O.3       1 <0>        -0.3594
     12 C9          4.0114   -8.6836    5.5251 C.3       1 <0>         0.1293
     13 C10         4.0428  -10.1707    5.2832 C.ar      1 <0>        -0.1041
     14 C11         3.0112  -10.9677    5.7428 C.ar      1 <0>        -0.0939
     15 C12         3.0400  -12.3318    5.5209 C.ar      1 <0>        -0.1227
     16 C13         4.1003  -12.8989    4.8389 C.ar      1 <0>        -0.1051
     17 C14         5.1315  -12.1017    4.3785 C.ar      1 <0>        -0.1225
     18 C15         5.1006  -10.7371    4.5967 C.ar      1 <0>        -0.0938
     19 N2         -1.3761   -0.5125    0.0124 N.4       1 <0>        -0.5048
     20 C16        -2.0500   -0.1262   -1.2343 C.3       1 <0>        -0.0475
     21 C17        -3.4854   -0.6557   -1.2235 C.3       1 <0>         0.1380
     22 C18        -4.1768   -0.2594   -2.5025 C.ar      1 <0>        -0.1367
     23 C19        -4.0413   -1.0452   -3.6319 C.ar      1 <0>        -0.0978
     24 C20        -4.6735   -0.6859   -4.8076 C.ar      1 <0>        -0.1234
     25 C21        -5.4454    0.4639   -4.8558 C.ar      1 <0>         0.1047
     26 C22        -5.5821    1.2546   -3.7189 C.ar      1 <0>         0.0900
     27 C23        -4.9497    0.8861   -2.5423 C.ar      1 <0>        -0.1136
     28 O3         -6.3386    2.3839   -3.7612 O.3       1 <0>        -0.4846
     29 O4         -6.0676    0.8190   -6.0117 O.3       1 <0>        -0.4850
     30 O5         -3.4667   -2.0804   -1.1139 O.3       1 <0>        -0.5469
     31 H1          1.0039    1.9031    0.0027 H         1 <0>         0.1079
     32 H2         -0.5459    1.8868   -0.8726 H         1 <0>         0.0817
     33 H3         -0.5289    1.8773    0.9072 H         1 <0>         0.0835
     34 H4          0.5123   -0.3556   -0.8948 H         1 <0>         0.1397
     35 H5          1.7350   -0.0630    1.2804 H         1 <0>         0.1152
     36 H6          0.1838   -0.2350    2.1361 H         1 <0>         0.0911
     37 H7         -0.1210   -2.4817    1.1320 H         1 <0>         0.0596
     38 H8          1.4302   -2.3096    0.2763 H         1 <0>         0.0803
     39 H9          2.6049   -2.0927    2.4492 H         1 <0>         0.0774
     40 H10         1.0536   -2.2647    3.3050 H         1 <0>         0.0740
     41 H11         0.7488   -4.5113    2.3008 H         1 <0>         0.0733
     42 H12         2.3001   -4.3393    1.4451 H         1 <0>         0.0752
     43 H13         3.4748   -4.1223    3.6180 H         1 <0>         0.0733
     44 H14         1.9235   -4.2944    4.4738 H         1 <0>         0.0725
     45 H15         2.2416   -6.5116    2.7535 H         1 <0>         0.4077
     46 H16         5.0312   -8.3058    5.5985 H         1 <0>         0.0795
     47 H17         3.4799   -8.4778    6.4542 H         1 <0>         0.0793
     48 H18         2.1828  -10.5247    6.2757 H         1 <0>         0.1244
     49 H19         2.2343  -12.9546    5.8807 H         1 <0>         0.1274
     50 H20         4.1232  -13.9647    4.6662 H         1 <0>         0.1269
     51 H21         5.9601  -12.5448    3.8460 H         1 <0>         0.1275
     52 H22         5.9044  -10.1138    4.2337 H         1 <0>         0.1246
     53 H23        -1.3629   -1.5185    0.0898 H         1 <0>         0.4293
     54 H24        -2.0643    0.9605   -1.3179 H         1 <0>         0.1470
     55 H25        -1.5132   -0.5489   -2.0836 H         1 <0>         0.1377
     56 H26        -4.0222   -0.2330   -0.3742 H         1 <0>         0.1330
     57 H27        -3.4399   -1.9415   -3.5957 H         1 <0>         0.1305
     58 H28        -4.5655   -1.3011   -5.6887 H         1 <0>         0.1433
     59 H29        -5.0572    1.4960   -1.6576 H         1 <0>         0.1387
     60 H30        -7.2680    2.2434   -3.5341 H         1 <0>         0.3970
     61 H31        -6.9582    0.4546   -6.1070 H         1 <0>         0.3989
     62 H32        -3.0042   -2.5245   -1.8377 H         1 <0>         0.3885
     63 H33        -1.8730   -0.1212    0.7986 H         1 <0>         0.4269
@<TRIPOS>BOND
     1    1    2 1
     2    1   31 1
     3    1   32 1
     4    1   33 1
     5    2    3 1
     6    2   19 1
     7    2   34 1
     8    3    4 1
     9    3   35 1
    10    3   36 1
    11    4    5 1
    12    4   37 1
    13    4   38 1
    14    5    6 1
    15    5   39 1
    16    5   40 1
    17    6    7 1
    18    6   41 1
    19    6   42 1
    20    7    8 1
    21    7   43 1
    22    7   44 1
    23    8    9 am
    24    8   45 1
    25    9   10 2
    26    9   11 1
    27   11   12 1
    28   12   13 1
    29   12   46 1
    30   12   47 1
    31   13   18 ar
    32   13   14 ar
    33   14   15 ar
    34   14   48 1
    35   15   16 ar
    36   15   49 1
    37   16   17 ar
    38   16   50 1
    39   17   18 ar
    40   17   51 1
    41   18   52 1
    42   19   20 1
    43   19   53 1
    44   19   63 1
    45   20   21 1
    46   20   54 1
    47   20   55 1
    48   21   22 1
    49   21   30 1
    50   21   56 1
    51   22   27 ar
    52   22   23 ar
    53   23   24 ar
    54   23   57 1
    55   24   25 ar
    56   24   58 1
    57   25   26 ar
    58   25   29 1
    59   26   27 ar
    60   26   28 1
    61   27   59 1
    62   28   60 1
    63   29   61 1
    64   30   62 1
@<TRIPOS>MOLECULE
CHEMBL338748
   62    65     0     0     0
SMALL
USER_CHARGES

@<TRIPOS>ATOM
      1 C1          0.0467   -0.8373    2.7607 C.ar      1 <0>        -0.1040
      2 C2          0.7050    0.0598    1.9342 C.ar      1 <0>        -0.1707
      3 C3          2.0822    0.0096    1.7947 C.ar      1 <0>        -0.0580
      4 C4          2.8117   -0.9485    2.4897 C.ar      1 <0>        -0.0838
      5 C5          2.1467   -1.8669    3.3353 C.ar      1 <0>         0.0081
      6 C6          0.7484   -1.7964    3.4602 C.ar      1 <0>        -0.1500
      7 C7          2.8844   -2.8358    4.0397 C.ar      1 <0>        -0.2194
      8 C8          4.2631   -2.9207    3.9305 C.ar      1 <0>        -0.0390
      9 C9          4.9801   -2.0648    3.1298 C.ar      1 <0>        -0.2565
     10 C10         4.2788   -1.0293    2.3643 C.ar      1 <0>         0.2382
     11 N1          4.9442   -0.1897    1.5832 N.2       1 <0>        -0.6214
     12 C11         6.0215   -0.6116    0.9125 C.2       1 <0>         0.5228
     13 C12         6.8432    0.3077    0.2663 C.2       1 <0>        -0.3449
     14 N2          7.7925   -0.1271   -0.6210 N.pl3     1 <0>         0.1559
     15 O1          7.7220   -1.2418   -1.0836 O.2       1 <0>        -0.3449
     16 O2          8.7006    0.6040   -0.9411 O.3       1 <0>        -0.3256
     17 N3          6.3182   -1.9560    0.8612 N.pl3     1 <0>        -0.6902
     18 C13         5.2972   -2.8990    0.9596 C.ar      1 <0>         0.2318
     19 C14         4.0587   -2.6492    0.3777 C.ar      1 <0>        -0.1470
     20 C15         3.0500   -3.5862    0.4771 C.ar      1 <0>        -0.0611
     21 C16         3.2693   -4.7723    1.1547 C.ar      1 <0>        -0.1474
     22 C17         4.4997   -5.0245    1.7349 C.ar      1 <0>        -0.0720
     23 C18         5.5155   -4.0952    1.6351 C.ar      1 <0>        -0.1505
     24 C19         2.1648   -5.7920    1.2616 C.3       1 <0>        -0.0862
     25 C20         2.2414   -6.7531    0.0736 C.3       1 <0>        -0.0092
     26 N4          1.1648   -7.7471    0.1778 N.4       1 <0>        -0.5052
     27 C21         1.2383   -8.6700   -0.9628 C.3       1 <0>        -0.0424
     28 C22         0.1170   -9.7052   -0.8543 C.3       1 <0>         0.1408
     29 H1         -0.8476   -9.1978   -0.8590 H         1 <0>         0.1334
     30 C23         0.1925  -10.6519   -2.0244 C.ar      1 <0>        -0.1967
     31 C24        -0.5711  -10.4270   -3.1599 C.ar      1 <0>        -0.0550
     32 C25        -0.4695  -11.3243   -4.2117 C.ar      1 <0>        -0.1649
     33 C26         0.3834  -12.4057   -4.0945 C.ar      1 <0>         0.1198
     34 N5          1.0943  -12.5883   -2.9992 N.ar      1 <0>        -0.4758
     35 C27         1.0276  -11.7520   -1.9816 C.ar      1 <0>         0.1170
     36 O3          0.2629  -10.4397    0.3628 O.3       1 <0>        -0.5464
     37 H2         -1.0271   -0.7816    2.8613 H         1 <0>         0.1102
     38 H3          0.1391    0.8043    1.3939 H         1 <0>         0.1128
     39 H4          2.5874    0.7118    1.1481 H         1 <0>         0.1253
     40 H5          0.2257   -2.4904    4.1018 H         1 <0>         0.1121
     41 H6          2.3632   -3.5305    4.6817 H         1 <0>         0.0994
     42 H7          4.7885   -3.6802    4.4904 H         1 <0>         0.0977
     43 H8          6.0545   -2.1541    3.0647 H         1 <0>         0.1101
     44 H9          6.7324    1.3636    0.4642 H         1 <0>         0.1671
     45 H10         7.2379   -2.2460    0.7565 H         1 <0>         0.4151
     46 H11         3.8865   -1.7232   -0.1508 H         1 <0>         0.1215
     47 H12         2.0881   -3.3930    0.0256 H         1 <0>         0.1138
     48 H13         4.6669   -5.9516    2.2630 H         1 <0>         0.1159
     49 H14         6.4769   -4.2946    2.0848 H         1 <0>         0.1208
     50 H15         2.2761   -6.3522    2.1900 H         1 <0>         0.0895
     51 H16         1.2002   -5.2846    1.2568 H         1 <0>         0.0898
     52 H17         2.1301   -6.1929   -0.8547 H         1 <0>         0.1321
     53 H18         3.2061   -7.2605    0.0784 H         1 <0>         0.1320
     54 H19         1.2678   -8.2657    1.0372 H         1 <0>         0.4307
     55 H20         1.1271   -8.1098   -1.8912 H         1 <0>         0.1437
     56 H21         2.2030   -9.1774   -0.9580 H         1 <0>         0.1367
     57 H22        -1.2296   -9.5733   -3.2231 H         1 <0>         0.1413
     58 H23        -1.0498  -11.1804   -5.1112 H         1 <0>         0.1461
     59 H24         0.4683  -13.1093   -4.9095 H         1 <0>         0.1657
     60 H25         1.6292  -11.9315   -1.1028 H         1 <0>         0.1534
     61 H26         1.1005  -10.9175    0.4359 H         1 <0>         0.3894
     62 H27         0.2718   -7.2774    0.1734 H         1 <0>         0.4283
@<TRIPOS>BOND
     1    1    6 ar
     2    1    2 ar
     3    1   37 1
     4    2    3 ar
     5    2   38 1
     6    3    4 ar
     7    3   39 1
     8    4   10 ar
     9    4    5 ar
    10    5    6 ar
    11    5    7 ar
    12    6   40 1
    13    7    8 ar
    14    7   41 1
    15    8    9 ar
    16    8   42 1
    17    9   10 ar
    18    9   43 1
    19   10   11 1
    20   11   12 2
    21   12   17 1
    22   12   13 1
    23   13   14 1
    24   13   44 1
    25   14   15 2
    26   14   16 1
    27   17   18 1
    28   17   45 1
    29   18   23 ar
    30   18   19 ar
    31   19   20 ar
    32   19   46 1
    33   20   21 ar
    34   20   47 1
    35   21   22 ar
    36   21   24 1
    37   22   23 ar
    38   22   48 1
    39   23   49 1
    40   24   25 1
    41   24   50 1
    42   24   51 1
    43   25   26 1
    44   25   52 1
    45   25   53 1
    46   26   27 1
    47   26   54 1
    48   26   62 1
    49   27   28 1
    50   27   55 1
    51   27   56 1
    52   28   29 1
    53   28   30 1
    54   28   36 1
    55   30   35 ar
    56   30   31 ar
    57   31   32 ar
    58   31   57 1
    59   32   33 ar
    60   32   58 1
    61   33   34 ar
    62   33   59 1
    63   34   35 ar
    64   35   60 1
    65   36   61 1
@<TRIPOS>MOLECULE
CHEMBL338748
   63    66     0     0     0
SMALL
USER_CHARGES

@<TRIPOS>ATOM
      1 C1          2.7428    1.0954   -4.7112 C.ar      1 <0>        -0.1056
      2 C2          4.0198    1.5066   -4.3358 C.ar      1 <0>        -0.1162
      3 C3          4.5660    1.1044   -3.1543 C.ar      1 <0>        -0.0940
      4 C4          3.8356    0.2652   -2.3018 C.ar      1 <0>        -0.0454
      5 C5          2.5373   -0.1540   -2.6814 C.ar      1 <0>        -0.0360
      6 C6          2.0053    0.2805   -3.9080 C.ar      1 <0>        -0.1084
      7 C7          1.8034   -0.9948   -1.8271 C.ar      1 <0>        -0.1065
      8 C8          2.3395   -1.4019   -0.6423 C.ar      1 <0>        -0.0992
      9 C9          3.6114   -1.0007   -0.2529 C.ar      1 <0>        -0.1716
     10 C10         4.3710   -0.1724   -1.0649 C.ar      1 <0>         0.1131
     11 N1          5.6223    0.2183   -0.6763 N.2       1 <0>        -0.5143
     12 C11         6.5075   -0.6757   -0.3341 C.2       1 <0>         0.4086
     13 C12         6.1937   -2.1422   -0.4830 C.3       1 <0>        -0.0262
     14 N2          7.3271   -2.9355   -0.0008 N.pl3     1 <0>        -0.0176
     15 O1          7.7822   -2.7320    1.1007 O.2       1 <0>        -0.1656
     16 O2          7.8072   -3.7935   -0.7042 O.3       1 <0>        -0.1189
     17 N3          7.7214   -0.2825    0.1604 N.pl3     1 <0>        -0.6411
     18 C13         7.9713    1.0710    0.4048 C.ar      1 <0>         0.1775
     19 C14         6.9402    1.9060    0.8161 C.ar      1 <0>        -0.1077
     20 C15         7.1907    3.2426    1.0572 C.ar      1 <0>        -0.0864
     21 C16         8.4661    3.7499    0.8892 C.ar      1 <0>        -0.1263
     22 C17         9.4948    2.9215    0.4795 C.ar      1 <0>        -0.0841
     23 C18         9.2526    1.5827    0.2426 C.ar      1 <0>        -0.1422
     24 C19         8.7355    5.2091    1.1527 C.3       1 <0>        -0.0971
     25 C20         9.1292    5.3982    2.6191 C.3       1 <0>        -0.0075
     26 N4          9.3919    6.8206    2.8760 N.4       1 <0>        -0.5056
     27 C21         9.7699    7.0022    4.2838 C.3       1 <0>        -0.0426
     28 C22        10.0434    8.4836    4.5514 C.3       1 <0>         0.1415
     29 H1          9.1451    9.0631    4.3387 H         1 <0>         0.1337
     30 C23        10.4312    8.6699    5.9957 C.ar      1 <0>        -0.2004
     31 C24         9.4760    9.0133    6.9405 C.ar      1 <0>        -0.0550
     32 C25         9.8784    9.1743    8.2572 C.ar      1 <0>        -0.1641
     33 C26        11.2090    8.9885    8.5824 C.ar      1 <0>         0.1226
     34 N5         12.0902    8.6627    7.6573 N.ar      1 <0>        -0.4748
     35 C27        11.7421    8.4953    6.3962 C.ar      1 <0>         0.1173
     36 O3         11.1089    8.9307    3.7106 O.3       1 <0>        -0.5460
     37 H2          2.3302    1.4316   -5.6509 H         1 <0>         0.1280
     38 H3          4.5849    2.1530   -4.9909 H         1 <0>         0.1250
     39 H4          5.5573    1.4305   -2.8760 H         1 <0>         0.1269
     40 H5          1.0166   -0.0306   -4.2114 H         1 <0>         0.1328
     41 H6          0.8127   -1.3185   -2.1100 H         1 <0>         0.1331
     42 H7          1.7654   -2.0476    0.0056 H         1 <0>         0.1298
     43 H8          4.0123   -1.3373    0.6918 H         1 <0>         0.1210
     44 H9          5.3058   -2.3849    0.1007 H         1 <0>         0.1739
     45 H10         6.0116   -2.3699   -1.5333 H         1 <0>         0.1642
     46 H11         8.4085   -0.9429    0.3412 H         1 <0>         0.4249
     47 H12         5.9438    1.5106    0.9468 H         1 <0>         0.1430
     48 H13         6.3895    3.8924    1.3769 H         1 <0>         0.1269
     49 H14        10.4897    3.3210    0.3489 H         1 <0>         0.1295
     50 H15        10.0574    0.9352   -0.0727 H         1 <0>         0.1317
     51 H16         9.5482    5.5501    0.5114 H         1 <0>         0.0960
     52 H17         7.8372    5.7886    0.9401 H         1 <0>         0.0955
     53 H18         8.3165    5.0572    3.2604 H         1 <0>         0.1335
     54 H19        10.0276    4.8187    2.8317 H         1 <0>         0.1337
     55 H20        10.1442    7.1363    2.2823 H         1 <0>         0.4325
     56 H21         8.9572    6.6612    4.9252 H         1 <0>         0.1445
     57 H22        10.6682    6.4227    4.4965 H         1 <0>         0.1378
     58 H23         8.4431    9.1523    6.6571 H         1 <0>         0.1410
     59 H24         9.1614    9.4418    9.0193 H         1 <0>         0.1472
     60 H25        11.5306    9.1121    9.6060 H         1 <0>         0.1672
     61 H26        12.4912    8.2231    5.6674 H         1 <0>         0.1531
     62 H27        11.9415    8.4578    3.8458 H         1 <0>         0.3900
     63 H28         8.5603    7.3570    2.6791 H         1 <0>         0.4295
@<TRIPOS>BOND
     1    1    6 ar
     2    1    2 ar
     3    1   37 1
     4    2    3 ar
     5    2   38 1
     6    3    4 ar
     7    3   39 1
     8    4   10 ar
     9    4    5 ar
    10    5    6 ar
    11    5    7 ar
    12    6   40 1
    13    7    8 ar
    14    7   41 1
    15    8    9 ar
    16    8   42 1
    17    9   10 ar
    18    9   43 1
    19   10   11 1
    20   11   12 2
    21   12   17 1
    22   12   13 1
    23   13   14 1
    24   13   45 1
    25   13   44 1
    26   14   15 2
    27   14   16 1
    28   17   18 1
    29   17   46 1
    30   18   23 ar
    31   18   19 ar
    32   19   20 ar
    33   19   47 1
    34   20   21 ar
    35   20   48 1
    36   21   22 ar
    37   21   24 1
    38   22   23 ar
    39   22   49 1
    40   23   50 1
    41   24   25 1
    42   24   51 1
    43   24   52 1
    44   25   26 1
    45   25   53 1
    46   25   54 1
    47   26   27 1
    48   26   55 1
    49   26   63 1
    50   27   28 1
    51   27   56 1
    52   27   57 1
    53   28   29 1
    54   28   30 1
    55   28   36 1
    56   30   35 ar
    57   30   31 ar
    58   31   32 ar
    59   31   58 1
    60   32   33 ar
    61   32   59 1
    62   33   34 ar
    63   33   60 1
    64   34   35 ar
    65   35   61 1
    66   36   62 1
@<TRIPOS>MOLECULE
CHEMBL338748
   63    66     0     0     0
SMALL
USER_CHARGES

@<TRIPOS>ATOM
      1 C1         11.7396    0.0345    2.3320 C.ar      1 <0>        -0.1020
      2 C2         10.5365    0.5887    2.7633 C.ar      1 <0>        -0.1162
      3 C3          9.3947    0.4365    2.0358 C.ar      1 <0>        -0.0889
      4 C4          9.4273   -0.2874    0.8360 C.ar      1 <0>        -0.0441
      5 C5         10.6493   -0.8517    0.3958 C.ar      1 <0>        -0.0364
      6 C6         11.8079   -0.6745    1.1720 C.ar      1 <0>        -0.1136
      7 C7         10.6836   -1.5770   -0.8076 C.ar      1 <0>        -0.1073
      8 C8          9.5478   -1.7341   -1.5438 C.ar      1 <0>        -0.1026
      9 C9          8.3400   -1.1875   -1.1283 C.ar      1 <0>        -0.1767
     10 C10         8.2600   -0.4654    0.0527 C.ar      1 <0>         0.1136
     11 N1          7.0682    0.0694    0.4566 N.2       1 <0>        -0.4758
     12 C11         6.0003   -0.6773    0.5009 C.2       1 <0>         0.3688
     13 C12         4.6690   -0.0679    0.8579 C.3       1 <0>         0.0305
     14 N2          4.8811    1.1003    1.7161 N.pl3     1 <0>        -0.0193
     15 O1          5.7379    1.9068    1.4384 O.2       1 <0>        -0.0828
     16 O2          4.1994    1.2579    2.7020 O.3       1 <0>        -0.1732
     17 N3          6.0883   -2.0145    0.2233 N.pl3     1 <0>        -0.6805
     18 C13         4.9761   -2.8412    0.4069 C.ar      1 <0>         0.1681
     19 C14         3.7090   -2.3907    0.0590 C.ar      1 <0>        -0.1710
     20 C15         2.6124   -3.2102    0.2413 C.ar      1 <0>        -0.0706
     21 C16         2.7747   -4.4777    0.7700 C.ar      1 <0>        -0.1258
     22 C17         4.0347   -4.9291    1.1178 C.ar      1 <0>        -0.0717
     23 C18         5.1363   -4.1171    0.9324 C.ar      1 <0>        -0.1381
     24 C19         1.5757   -5.3689    0.9679 C.3       1 <0>        -0.0995
     25 C20         1.4159   -6.2861   -0.2463 C.3       1 <0>        -0.0077
     26 N4          0.2472   -7.1548   -0.0533 N.4       1 <0>        -0.5056
     27 C21         0.0938   -8.0354   -1.2191 C.3       1 <0>        -0.0426
     28 C22        -1.1235   -8.9402   -1.0182 C.3       1 <0>         0.1417
     29 H1         -2.0176   -8.3268   -0.9060 H         1 <0>         0.1341
     30 C23        -1.2809   -9.8435   -2.2141 C.ar      1 <0>        -0.2011
     31 C24        -2.1264   -9.4898   -3.2547 C.ar      1 <0>        -0.0548
     32 C25        -2.2399  -10.3517   -4.3346 C.ar      1 <0>        -0.1640
     33 C26        -1.5117  -11.5265   -4.3382 C.ar      1 <0>         0.1230
     34 N5         -0.7174  -11.8307   -3.3307 N.ar      1 <0>        -0.4747
     35 C27        -0.5801  -11.0320   -2.2901 C.ar      1 <0>         0.1172
     36 O3         -0.9392   -9.7328    0.1565 O.3       1 <0>        -0.5458
     37 H2         12.6320    0.1730    2.9244 H         1 <0>         0.1283
     38 H3         10.5084    1.1467    3.6875 H         1 <0>         0.1281
     39 H4          8.4687    0.8713    2.3821 H         1 <0>         0.1330
     40 H5         12.7473   -1.0988    0.8496 H         1 <0>         0.1318
     41 H6         11.6120   -2.0102   -1.1495 H         1 <0>         0.1319
     42 H7          9.5873   -2.2933   -2.4669 H         1 <0>         0.1273
     43 H8          7.4547   -1.3264   -1.7311 H         1 <0>         0.1216
     44 H9          4.1540    0.2387   -0.0525 H         1 <0>         0.1635
     45 H10         4.0634   -0.8030    1.3880 H         1 <0>         0.1561
     46 H11         6.9225   -2.3887   -0.1009 H         1 <0>         0.4268
     47 H12         3.5814   -1.4007   -0.3532 H         1 <0>         0.1335
     48 H13         1.6269   -2.8606   -0.0289 H         1 <0>         0.1350
     49 H14         4.1580   -5.9194    1.5307 H         1 <0>         0.1334
     50 H15         6.1207   -4.4720    1.1997 H         1 <0>         0.1355
     51 H16         1.7163   -5.9735    1.8639 H         1 <0>         0.0990
     52 H17         0.6816   -4.7556    1.0801 H         1 <0>         0.0986
     53 H18         1.2753   -5.6815   -1.1423 H         1 <0>         0.1340
     54 H19         2.3100   -6.8994   -0.3585 H         1 <0>         0.1334
     55 H20         0.3773   -7.7144    0.7761 H         1 <0>         0.4331
     56 H21        -0.0468   -7.4308   -2.1151 H         1 <0>         0.1447
     57 H22         0.9878   -8.6487   -1.3313 H         1 <0>         0.1377
     58 H23        -2.6836   -8.5651   -3.2244 H         1 <0>         0.1411
     59 H24        -2.8894  -10.1084   -5.1625 H         1 <0>         0.1475
     60 H25        -1.5945  -12.2033   -5.1758 H         1 <0>         0.1675
     61 H26         0.0841  -11.3124   -1.4860 H         1 <0>         0.1529
     62 H27        -0.1602  -10.3049    0.1267 H         1 <0>         0.3900
     63 H28        -0.5804   -6.5870    0.0505 H         1 <0>         0.4302
@<TRIPOS>BOND
     1    1    6 ar
     2    1    2 ar
     3    1   37 1
     4    2    3 ar
     5    2   38 1
     6    3    4 ar
     7    3   39 1
     8    4   10 ar
     9    4    5 ar
    10    5    6 ar
    11    5    7 ar
    12    6   40 1
    13    7    8 ar
    14    7   41 1
    15    8    9 ar
    16    8   42 1
    17    9   10 ar
    18    9   43 1
    19   10   11 1
    20   11   12 2
    21   12   17 1
    22   12   13 1
    23   13   14 1
    24   13   45 1
    25   13   44 1
    26   14   15 2
    27   14   16 1
    28   17   18 1
    29   17   46 1
    30   18   23 ar
    31   18   19 ar
    32   19   20 ar
    33   19   47 1
    34   20   21 ar
    35   20   48 1
    36   21   22 ar
    37   21   24 1
    38   22   23 ar
    39   22   49 1
    40   23   50 1
    41   24   25 1
    42   24   51 1
    43   24   52 1
    44   25   26 1
    45   25   53 1
    46   25   54 1
    47   26   27 1
    48   26   55 1
    49   26   63 1
    50   27   28 1
    51   27   56 1
    52   27   57 1
    53   28   29 1
    54   28   30 1
    55   28   36 1
    56   30   35 ar
    57   30   31 ar
    58   31   32 ar
    59   31   58 1
    60   32   33 ar
    61   32   59 1
    62   33   34 ar
    63   33   60 1
    64   34   35 ar
    65   35   61 1
    66   36   62 1
@<TRIPOS>MOLECULE
CHEMBL338748
   62    65     0     0     0
SMALL
USER_CHARGES

@<TRIPOS>ATOM
      1 C1          2.7974   -0.0993   -5.7337 C.ar      1 <0>        -0.1110
      2 C2          3.9432    0.5519   -5.3042 C.ar      1 <0>        -0.1599
      3 C3          4.3936    0.4012   -4.0031 C.ar      1 <0>        -0.0659
      4 C4          3.6908   -0.4097   -3.1191 C.ar      1 <0>        -0.0829
      5 C5          2.5204   -1.0769   -3.5502 C.ar      1 <0>        -0.0132
      6 C6          2.0834   -0.9089   -4.8755 C.ar      1 <0>        -0.1324
      7 C7          1.8083   -1.8967   -2.6559 C.ar      1 <0>        -0.1920
      8 C8          2.2225   -2.0742   -1.3456 C.ar      1 <0>        -0.0666
      9 C9          3.3485   -1.4603   -0.8525 C.ar      1 <0>        -0.2065
     10 C10         4.1425   -0.5914   -1.7270 C.ar      1 <0>         0.2255
     11 N1          5.2338    0.0138   -1.2792 N.2       1 <0>        -0.6387
     12 C11         6.1680   -0.6876   -0.6284 C.2       1 <0>         0.5357
     13 C12         6.0555   -2.0715   -0.5281 C.2       1 <0>        -0.4049
     14 N2          6.6346   -2.7315    0.5237 N.pl3     1 <0>         0.1698
     15 O1          7.1112   -2.1054    1.4416 O.2       1 <0>        -0.3794
     16 O2          6.6691   -3.9400    0.5338 O.3       1 <0>        -0.3497
     17 N3          7.2418   -0.0406   -0.0571 N.pl3     1 <0>        -0.6407
     18 C13         7.2826    1.3519   -0.0306 C.ar      1 <0>         0.2099
     19 C14         6.1066    2.0814    0.1097 C.ar      1 <0>        -0.1126
     20 C15         6.1513    3.4608    0.1359 C.ar      1 <0>        -0.0861
     21 C16         7.3636    4.1178    0.0224 C.ar      1 <0>        -0.1563
     22 C17         8.5355    3.3959   -0.1173 C.ar      1 <0>        -0.0836
     23 C18         8.4999    2.0161   -0.1387 C.ar      1 <0>        -0.1646
     24 C19         7.4076    5.6239    0.0506 C.3       1 <0>        -0.0876
     25 C20         7.5737    6.1023    1.4943 C.3       1 <0>        -0.0088
     26 N4          7.6166    7.5705    1.5218 N.4       1 <0>        -0.5053
     27 C21         7.7760    8.0298    2.9080 C.3       1 <0>        -0.0426
     28 C22         7.8207    9.5589    2.9365 C.3       1 <0>         0.1409
     29 H1          6.8928    9.9573    2.5262 H         1 <0>         0.1335
     30 C23         7.9843   10.0302    4.3586 C.ar      1 <0>        -0.1973
     31 C24         6.8751   10.3755    5.1158 C.ar      1 <0>        -0.0549
     32 C25         7.0734   10.8038    6.4193 C.ar      1 <0>        -0.1648
     33 C26         8.3610   10.8718    6.9174 C.ar      1 <0>         0.1201
     34 N5          9.3926   10.5357    6.1681 N.ar      1 <0>        -0.4757
     35 C27         9.2411   10.1182    4.9263 C.ar      1 <0>         0.1171
     36 O3          8.9239   10.0180    2.1527 O.3       1 <0>        -0.5466
     37 H2          2.4577    0.0323   -6.7504 H         1 <0>         0.1144
     38 H3          4.4897    1.1820   -5.9903 H         1 <0>         0.1134
     39 H4          5.2877    0.9115   -3.6766 H         1 <0>         0.1224
     40 H5          1.1918   -1.4115   -5.2203 H         1 <0>         0.1193
     41 H6          0.9164   -2.4000   -2.9990 H         1 <0>         0.1110
     42 H7          1.6442   -2.7124   -0.6938 H         1 <0>         0.1096
     43 H8          3.6469   -1.6166    0.1736 H         1 <0>         0.1153
     44 H9          5.5116   -2.6249   -1.2794 H         1 <0>         0.1592
     45 H10         7.9695   -0.5545    0.3267 H         1 <0>         0.4257
     46 H11         5.1598    1.5693    0.1976 H         1 <0>         0.1426
     47 H12         5.2387    4.0280    0.2448 H         1 <0>         0.1183
     48 H13         9.4798    3.9125   -0.2056 H         1 <0>         0.1190
     49 H14         9.4156    1.4532   -0.2437 H         1 <0>         0.1252
     50 H15         8.2490    5.9740   -0.5473 H         1 <0>         0.0897
     51 H16         6.4796    6.0222   -0.3597 H         1 <0>         0.0903
     52 H17         6.7322    5.7522    2.0922 H         1 <0>         0.1333
     53 H18         8.5016    5.7040    1.9046 H         1 <0>         0.1326
     54 H19         8.3955    7.8946    0.9683 H         1 <0>         0.4308
     55 H20         6.9346    7.6797    3.5058 H         1 <0>         0.1441
     56 H21         8.7040    7.6315    3.3183 H         1 <0>         0.1370
     57 H22         5.8804   10.3127    4.6998 H         1 <0>         0.1414
     58 H23         6.2325   11.0811    7.0377 H         1 <0>         0.1462
     59 H24         8.5240   11.2044    7.9319 H         1 <0>         0.1659
     60 H25        10.1096    9.8465    4.3447 H         1 <0>         0.1534
     61 H26         9.7841    9.7016    2.4610 H         1 <0>         0.3895
     62 H27         6.7576    7.9392    1.1420 H         1 <0>         0.4283
@<TRIPOS>BOND
     1    1    6 ar
     2    1    2 ar
     3    1   37 1
     4    2    3 ar
     5    2   38 1
     6    3    4 ar
     7    3   39 1
     8    4   10 ar
     9    4    5 ar
    10    5    6 ar
    11    5    7 ar
    12    6   40 1
    13    7    8 ar
    14    7   41 1
    15    8    9 ar
    16    8   42 1
    17    9   10 ar
    18    9   43 1
    19   10   11 1
    20   11   12 2
    21   12   17 1
    22   12   13 1
    23   13   14 1
    24   13   44 1
    25   14   15 2
    26   14   16 1
    27   17   18 1
    28   17   45 1
    29   18   23 ar
    30   18   19 ar
    31   19   20 ar
    32   19   46 1
    33   20   21 ar
    34   20   47 1
    35   21   22 ar
    36   21   24 1
    37   22   23 ar
    38   22   48 1
    39   23   49 1
    40   24   25 1
    41   24   50 1
    42   24   51 1
    43   25   26 1
    44   25   52 1
    45   25   53 1
    46   26   27 1
    47   26   54 1
    48   26   62 1
    49   27   28 1
    50   27   55 1
    51   27   56 1
    52   28   29 1
    53   28   30 1
    54   28   36 1
    55   30   35 ar
    56   30   31 ar
    57   31   32 ar
    58   31   57 1
    59   32   33 ar
    60   32   58 1
    61   33   34 ar
    62   33   59 1
    63   34   35 ar
    64   35   60 1
    65   36   61 1
@<TRIPOS>MOLECULE
CHEMBL13079
   61    63     0     0     0
SMALL
USER_CHARGES

@<TRIPOS>ATOM
      1 C1          3.1946    1.6509    6.6240 C.ar      1 <0>        -0.1039
      2 C2          3.2800    0.2748    6.7229 C.ar      1 <0>        -0.1137
      3 C3          4.0697   -0.4342    5.8372 C.ar      1 <0>        -0.1048
      4 C4          4.7737    0.2329    4.8522 C.ar      1 <0>        -0.1020
      5 C5          4.6876    1.6090    4.7527 C.ar      1 <0>        -0.1029
      6 C6          3.8990    2.3181    5.6393 C.ar      1 <0>        -0.1173
      7 C7          5.6354   -0.5399    3.8871 C.3       1 <0>        -0.5745
      8 S1          4.6492   -1.0105    2.4392 S.o2      1 <0>         2.5985
      9 O1          3.7330   -2.0403    2.7847 O.2       1 <0>        -0.9368
     10 O2          4.2074    0.1507    1.7495 O.2       1 <0>        -0.9383
     11 N1          5.7254   -1.7312    1.4073 N.pl3     1 <0>        -1.0716
     12 C8          6.7816   -0.9910    0.8712 C.ar      1 <0>         0.1394
     13 C9          6.5435   -0.0721   -0.1430 C.ar      1 <0>        -0.0981
     14 C10         7.5902    0.6584   -0.6704 C.ar      1 <0>        -0.0977
     15 C11         8.8741    0.4757   -0.1904 C.ar      1 <0>        -0.1018
     16 C12         9.1146   -0.4382    0.8192 C.ar      1 <0>        -0.1009
     17 C13         8.0717   -1.1679    1.3551 C.ar      1 <0>        -0.1157
     18 C14        10.0138    1.2739   -0.7691 C.3       1 <0>        -0.1027
     19 C15        10.1779    2.5744    0.0200 C.3       1 <0>        -0.0083
     20 N2         11.2889    3.3526   -0.5441 N.4       1 <0>        -0.5038
     21 C16        11.4464    4.6012    0.2135 C.3       1 <0>        -0.0420
     22 C17        12.6036    5.4117   -0.3741 C.3       1 <0>         0.0855
     23 H1         12.3913    5.6441   -1.4176 H         1 <0>         0.1366
     24 C18        12.7677    6.7122    0.4150 C.3       1 <0>         0.0288
     25 O3         13.7698    7.5215   -0.2037 O.3       1 <0>        -0.3011
     26 C19        14.0402    8.7209    0.3772 C.ar      1 <0>         0.1085
     27 C20        13.3584    9.1064    1.5219 C.ar      1 <0>        -0.1913
     28 C21        13.6330   10.3248    2.1120 C.ar      1 <0>        -0.1062
     29 C22        14.5909   11.1624    1.5601 C.ar      1 <0>         0.0807
     30 C23        15.2733   10.7765    0.4160 C.ar      1 <0>        -0.1026
     31 C24        15.0018    9.5562   -0.1717 C.ar      1 <0>        -0.1258
     32 O4         14.8606   12.3622    2.1405 O.3       1 <0>        -0.4957
     33 O5         13.8093    4.6491   -0.2917 O.3       1 <0>        -0.5433
     34 H2          2.5741    2.2044    7.3132 H         1 <0>         0.1312
     35 H3          2.7299   -0.2464    7.4925 H         1 <0>         0.1333
     36 H4          4.1369   -1.5093    5.9149 H         1 <0>         0.1320
     37 H5          5.2379    2.1303    3.9834 H         1 <0>         0.1260
     38 H6          3.8321    3.3933    5.5618 H         1 <0>         0.1304
     39 H7          6.4729    0.0815    3.5699 H         1 <0>         0.1371
     40 H8          6.0137   -1.4374    4.3764 H         1 <0>         0.1446
     41 H9          5.6222   -2.6673    1.1751 H         1 <0>         0.4305
     42 H10         5.5412    0.0706   -0.5188 H         1 <0>         0.1441
     43 H11         7.4057    1.3730   -1.4590 H         1 <0>         0.1338
     44 H12        10.1185   -0.5785    1.1918 H         1 <0>         0.1324
     45 H13         8.2595   -1.8783    2.1466 H         1 <0>         0.1378
     46 H14        10.9335    0.6923   -0.7062 H         1 <0>         0.0995
     47 H15         9.8015    1.5064   -1.8126 H         1 <0>         0.1000
     48 H16         9.2582    3.1561   -0.0429 H         1 <0>         0.1363
     49 H17        10.3902    2.3420    1.0635 H         1 <0>         0.1347
     50 H18        12.1402    2.8142   -0.4859 H         1 <0>         0.4337
     51 H19        10.5267    5.1829    0.1506 H         1 <0>         0.1479
     52 H20        11.6587    4.3688    1.2570 H         1 <0>         0.1400
     53 H21        11.8208    7.2520    0.4267 H         1 <0>         0.0822
     54 H22        13.0670    6.4816    1.4374 H         1 <0>         0.0767
     55 H23        12.6125    8.4542    1.9516 H         1 <0>         0.1284
     56 H24        13.1016   10.6253    3.0029 H         1 <0>         0.1353
     57 H25        16.0190   11.4288   -0.0139 H         1 <0>         0.1419
     58 H26        15.5358    9.2541   -1.0604 H         1 <0>         0.1388
     59 H27        15.5597   12.3280    2.8078 H         1 <0>         0.3941
     60 H28        14.0601    4.4061    0.6101 H         1 <0>         0.3900
     61 H29        11.0924    3.5678   -1.5101 H         1 <0>         0.4319
@<TRIPOS>BOND
     1    1    6 ar
     2    1    2 ar
     3    1   34 1
     4    2    3 ar
     5    2   35 1
     6    3    4 ar
     7    3   36 1
     8    4    5 ar
     9    4    7 1
    10    5    6 ar
    11    5   37 1
    12    6   38 1
    13    7    8 1
    14    7   39 1
    15    7   40 1
    16    8    9 2
    17    8   10 2
    18    8   11 1
    19   11   12 1
    20   11   41 1
    21   12   17 ar
    22   12   13 ar
    23   13   14 ar
    24   13   42 1
    25   14   15 ar
    26   14   43 1
    27   15   16 ar
    28   15   18 1
    29   16   17 ar
    30   16   44 1
    31   17   45 1
    32   18   19 1
    33   18   46 1
    34   18   47 1
    35   19   20 1
    36   19   48 1
    37   19   49 1
    38   20   21 1
    39   20   50 1
    40   20   61 1
    41   21   22 1
    42   21   51 1
    43   21   52 1
    44   22   23 1
    45   22   24 1
    46   22   33 1
    47   24   25 1
    48   24   53 1
    49   24   54 1
    50   25   26 1
    51   26   31 ar
    52   26   27 ar
    53   27   28 ar
    54   27   55 1
    55   28   29 ar
    56   28   56 1
    57   29   30 ar
    58   29   32 1
    59   30   31 ar
    60   30   57 1
    61   31   58 1
    62   32   59 1
    63   33   60 1
@<TRIPOS>MOLECULE
CHEMBL183948
   64    66     0     0     0
SMALL
USER_CHARGES

@<TRIPOS>ATOM
      1 C1         -0.1481    1.2630   -0.0011 C.ar      1 <0>        -0.1546
      2 C2          1.0328    1.9822   -0.0045 C.ar      1 <0>        -0.0787
      3 C3          2.2456    1.3210   -0.0181 C.ar      1 <0>        -0.1503
      4 C4          2.2781   -0.0659   -0.0278 C.ar      1 <0>         0.1251
      5 C5          1.0919   -0.7853   -0.0239 C.ar      1 <0>        -0.2101
      6 C6         -0.1184   -0.1193   -0.0108 C.ar      1 <0>        -0.0803
      7 O1          3.4700   -0.7188   -0.0416 O.3       1 <0>        -0.3129
      8 C7          3.4272   -2.1471   -0.0510 C.3       1 <0>         0.0642
      9 C8          4.8538   -2.6999   -0.0659 C.3       1 <0>        -0.1204
     10 C9          4.8080   -4.2292   -0.0760 C.3       1 <0>         0.0634
     11 O2          6.1404   -4.7455   -0.0899 O.3       1 <0>        -0.3096
     12 C10         6.2781   -6.0975   -0.1002 C.ar      1 <0>         0.1398
     13 C11         5.1537   -6.9105   -0.1027 C.ar      1 <0>        -0.1965
     14 C12         5.2963   -8.2843   -0.1137 C.ar      1 <0>        -0.0711
     15 C13         6.5584   -8.8496   -0.1221 C.ar      1 <0>        -0.1487
     16 C14         7.6802   -8.0417   -0.1192 C.ar      1 <0>        -0.0668
     17 C15         7.5429   -6.6669   -0.1140 C.ar      1 <0>        -0.1449
     18 C16         9.0540   -8.6611   -0.1279 C.3       1 <0>        -0.1010
     19 C17         9.5148   -8.8597   -1.5733 C.3       1 <0>        -0.0067
     20 N1         10.8539   -9.4634   -1.5818 N.4       1 <0>        -0.5055
     21 C18        11.2963   -9.6540   -2.9695 C.3       1 <0>        -0.0421
     22 C19        12.6911  -10.2829   -2.9784 C.3       1 <0>         0.1375
     23 H1         12.6580  -11.2474   -2.4718 H         1 <0>         0.1339
     24 C20        13.1450  -10.4784   -4.4020 C.ar      1 <0>        -0.1344
     25 C21        13.7586   -9.4405   -5.0790 C.ar      1 <0>        -0.1040
     26 C22        14.1767   -9.6138   -6.3853 C.ar      1 <0>        -0.1194
     27 C23        13.9813  -10.8299   -7.0199 C.ar      1 <0>         0.1021
     28 C24        13.3636  -11.8759   -6.3384 C.ar      1 <0>         0.1237
     29 C25        12.9519  -11.6963   -5.0259 C.ar      1 <0>        -0.0918
     30 N2         13.1635  -13.1080   -6.9751 N.am      1 <0>        -0.6779
     31 C26        13.2510  -14.2531   -6.2698 C.2       1 <0>         0.4954
     32 O3         13.4227  -14.2146   -5.0697 O.2       1 <0>        -0.5354
     33 O4         14.3912  -11.0016   -8.3050 O.3       1 <0>        -0.4925
     34 O5         13.6069   -9.4201   -2.3007 O.3       1 <0>        -0.5463
     35 H2         -1.0952    1.7818    0.0137 H         1 <0>         0.1265
     36 H3          1.0070    3.0619    0.0030 H         1 <0>         0.1321
     37 H4          3.1677    1.8832   -0.0215 H         1 <0>         0.1316
     38 H5          1.1145   -1.8650   -0.0317 H         1 <0>         0.1255
     39 H6         -1.0421   -0.6788   -0.0078 H         1 <0>         0.1262
     40 H7          2.9097   -2.5010    0.8407 H         1 <0>         0.0668
     41 H8          2.8958   -2.4889   -0.9392 H         1 <0>         0.0663
     42 H9          5.3713   -2.3460   -0.9576 H         1 <0>         0.0881
     43 H10         5.3852   -2.3581    0.8223 H         1 <0>         0.0890
     44 H11         4.2905   -4.5831    0.8157 H         1 <0>         0.0705
     45 H12         4.2766   -4.5710   -0.9642 H         1 <0>         0.0698
     46 H13         4.1679   -6.4695   -0.0958 H         1 <0>         0.1339
     47 H14         4.4215   -8.9176   -0.1153 H         1 <0>         0.1328
     48 H15         6.6678   -9.9240   -0.1307 H         1 <0>         0.1270
     49 H16         8.4196   -6.0362   -0.1162 H         1 <0>         0.1334
     50 H17         9.7525   -8.0031    0.3890 H         1 <0>         0.0990
     51 H18         9.0209   -9.6257    0.3787 H         1 <0>         0.0998
     52 H19         8.8163   -9.5177   -2.0901 H         1 <0>         0.1345
     53 H20         9.5479   -7.8951   -2.0798 H         1 <0>         0.1342
     54 H21        11.5005   -8.8543   -1.1033 H         1 <0>         0.4324
     55 H22        10.5978  -10.3121   -3.4864 H         1 <0>         0.1445
     56 H23        11.3294   -8.6895   -3.4761 H         1 <0>         0.1380
     57 H24        13.9114   -8.4918   -4.5861 H         1 <0>         0.1289
     58 H25        14.6553   -8.8010   -6.9113 H         1 <0>         0.1423
     59 H26        12.4766  -12.5067   -4.4932 H         1 <0>         0.1486
     60 H27        12.9619  -13.1368   -7.9235 H         1 <0>         0.4225
     61 H28        13.1683  -15.2051   -6.7731 H         1 <0>         0.1549
     62 H29        15.2975  -11.3282   -8.3885 H         1 <0>         0.3999
     63 H30        13.6872   -8.5421   -2.6978 H         1 <0>         0.3878
     64 H31        10.8233  -10.3563   -1.1129 H         1 <0>         0.4300
@<TRIPOS>BOND
     1    1    6 ar
     2    1    2 ar
     3    1   35 1
     4    2    3 ar
     5    2   36 1
     6    3    4 ar
     7    3   37 1
     8    4    5 ar
     9    4    7 1
    10    5    6 ar
    11    5   38 1
    12    6   39 1
    13    7    8 1
    14    8    9 1
    15    8   40 1
    16    8   41 1
    17    9   10 1
    18    9   42 1
    19    9   43 1
    20   10   11 1
    21   10   44 1
    22   10   45 1
    23   11   12 1
    24   12   17 ar
    25   12   13 ar
    26   13   14 ar
    27   13   46 1
    28   14   15 ar
    29   14   47 1
    30   15   16 ar
    31   15   48 1
    32   16   17 ar
    33   16   18 1
    34   17   49 1
    35   18   19 1
    36   18   50 1
    37   18   51 1
    38   19   20 1
    39   19   52 1
    40   19   53 1
    41   20   21 1
    42   20   54 1
    43   20   64 1
    44   21   22 1
    45   21   55 1
    46   21   56 1
    47   22   23 1
    48   22   24 1
    49   22   34 1
    50   24   29 ar
    51   24   25 ar
    52   25   26 ar
    53   25   57 1
    54   26   27 ar
    55   26   58 1
    56   27   28 ar
    57   27   33 1
    58   28   29 ar
    59   28   30 1
    60   29   59 1
    61   30   31 am
    62   30   60 1
    63   31   32 2
    64   31   61 1
    65   33   62 1
    66   34   63 1
@<TRIPOS>MOLECULE
CHEMBL36060
   42    43     0     0     0
SMALL
USER_CHARGES

@<TRIPOS>ATOM
      1 C1         -0.0187    1.5258    0.0104 C.3       1 <0>        -0.1797
      2 C2          0.0021   -0.0041    0.0020 C.3       1 <0>         0.0548
      3 C3          0.7421   -0.5109    1.2415 C.3       1 <0>        -0.1792
      4 C4         -1.4333   -0.5336    0.0129 C.3       1 <0>        -0.1780
      5 N1          0.6897   -0.4778   -1.2066 N.4       1 <0>        -0.4978
      6 C5          2.0678    0.0307   -1.2170 C.3       1 <0>        -0.0514
      7 C6          2.7840   -0.4628   -2.4758 C.3       1 <0>         0.0866
      8 H1          2.2568   -0.1017   -3.3589 H         1 <0>         0.1350
      9 C7          4.2193    0.0668   -2.4867 C.3       1 <0>         0.0314
     10 O1          4.8516   -0.2959   -3.7158 O.3       1 <0>        -0.3032
     11 C8          6.1408    0.1009   -3.8874 C.ar      1 <0>         0.1361
     12 C9          6.7857    0.8186   -2.8929 C.ar      1 <0>        -0.2015
     13 C10         8.0979    1.2230   -3.0653 C.ar      1 <0>        -0.0663
     14 C11         8.7752    0.9156   -4.2291 C.ar      1 <0>        -0.1312
     15 C12         8.1393    0.1974   -5.2316 C.ar      1 <0>         0.1330
     16 C13         6.8186   -0.2170   -5.0592 C.ar      1 <0>         0.0648
     17 N2          6.4598   -0.9119   -6.2142 N.am      1 <0>        -0.6348
     18 C14         7.5178   -0.9230   -7.0470 C.2       1 <0>         0.6837
     19 N3          8.5431   -0.2550   -6.4856 N.am      1 <0>        -0.6389
     20 H2          9.4177   -0.1201   -6.8828 H         1 <0>         0.4417
     21 O2          7.5406   -1.4485   -8.1444 O.2       1 <0>        -0.5436
     22 O3          2.8033   -1.8916   -2.4837 O.3       1 <0>        -0.5435
     23 H3          1.0039    1.9031    0.0027 H         1 <0>         0.0814
     24 H4         -0.5459    1.8868   -0.8726 H         1 <0>         0.0838
     25 H5         -0.5289    1.8773    0.9072 H         1 <0>         0.1075
     26 H6          0.2319   -0.1594    2.1383 H         1 <0>         0.1075
     27 H7          0.7568   -1.6008    1.2356 H         1 <0>         0.0835
     28 H8          1.7647   -0.1336    1.2338 H         1 <0>         0.0809
     29 H9         -1.9605   -0.1726   -0.8702 H         1 <0>         0.0834
     30 H10        -1.4185   -1.6235    0.0069 H         1 <0>         0.0834
     31 H11        -1.9435   -0.1821    0.9097 H         1 <0>         0.1079
     32 H12         0.7033   -1.4867   -1.2121 H         1 <0>         0.4318
     33 H13         2.0530    1.1205   -1.2110 H         1 <0>         0.1488
     34 H14         2.5950   -0.3304   -0.3340 H         1 <0>         0.1420
     35 H15         4.2068    1.1525   -2.3912 H         1 <0>         0.0849
     36 H16         4.7722   -0.3649   -1.6524 H         1 <0>         0.0800
     37 H17         6.2625    1.0634   -1.9803 H         1 <0>         0.1355
     38 H18         8.5947    1.7821   -2.2862 H         1 <0>         0.1418
     39 H19         9.7989    1.2343   -4.3588 H         1 <0>         0.1402
     40 H20         3.2576   -2.2830   -1.7250 H         1 <0>         0.3901
     41 H21         0.2017   -0.1436   -2.0240 H         1 <0>         0.4290
     42 H22         5.5960   -1.3177   -6.3877 H         1 <0>         0.4384
@<TRIPOS>BOND
     1    1    2 1
     2    1   23 1
     3    1   24 1
     4    1   25 1
     5    2    3 1
     6    2    4 1
     7    2    5 1
     8    3   26 1
     9    3   27 1
    10    3   28 1
    11    4   29 1
    12    4   30 1
    13    4   31 1
    14    5    6 1
    15    5   32 1
    16    5   41 1
    17    6    7 1
    18    6   33 1
    19    6   34 1
    20    7    8 1
    21    7    9 1
    22    7   22 1
    23    9   10 1
    24    9   35 1
    25    9   36 1
    26   10   11 1
    27   11   16 ar
    28   11   12 ar
    29   12   13 ar
    30   12   37 1
    31   13   14 ar
    32   13   38 1
    33   14   15 ar
    34   14   39 1
    35   15   19 1
    36   15   16 ar
    37   16   17 1
    38   17   18 am
    39   17   42 1
    40   18   19 am
    41   18   21 2
    42   19   20 1
    43   22   40 1
@<TRIPOS>MOLECULE
CHEMBL1221680
   52    55     0     0     0
SMALL
USER_CHARGES

@<TRIPOS>ATOM
      1 C1         -0.0167    1.3781    0.0096 C.ar      1 <0>        -0.1061
      2 C2          1.1709    2.0855    0.0021 C.ar      1 <0>        -0.1212
      3 C3          2.3773    1.4107   -0.0130 C.ar      1 <0>        -0.0975
      4 C4          2.3960    0.0285   -0.0201 C.ar      1 <0>        -0.1040
      5 C5          1.2084   -0.6789   -0.0117 C.ar      1 <0>        -0.0962
      6 C6          0.0021   -0.0041    0.0020 C.ar      1 <0>        -0.1218
      7 C7          3.7112   -0.7071   -0.0376 C.3       1 <0>         0.1048
      8 O1          4.1410   -0.9464    1.3041 O.3       1 <0>        -0.3640
      9 C8          5.3853   -1.6423    1.4004 C.3       1 <0>         0.0715
     10 H1          6.0071   -1.4166    0.5341 H         1 <0>         0.0814
     11 C9          5.1353   -3.1620    1.4899 C.3       1 <0>        -0.1477
     12 C10         6.2177   -3.6676    2.4758 C.3       1 <0>        -0.1323
     13 C11         6.2838   -2.5293    3.5241 C.3       1 <0>        -0.1386
     14 C12         6.1161   -1.2391    2.6931 C.3       1 <0>         0.0165
     15 H2          5.5216   -0.5125    3.2470 H         1 <0>         0.1531
     16 N1          7.4325   -0.6722    2.3711 N.4       1 <0>        -0.4998
     17 C13         8.0689   -0.1824    3.6012 C.3       1 <0>        -0.0476
     18 C14         9.4400    0.4080    3.2658 C.3       1 <0>         0.1636
     19 H3          9.3183    1.2345    2.5658 H         1 <0>         0.1156
     20 C15        10.0929    0.9104    4.5277 C.ar      1 <0>        -0.2339
     21 C16        10.9827    0.1055    5.2179 C.ar      1 <0>        -0.0376
     22 C17        11.5709    0.5876    6.3742 C.ar      1 <0>        -0.2398
     23 C18        11.2859    1.8512    6.8474 C.ar      1 <0>         0.3006
     24 C19        10.3841    2.6906    6.1643 C.ar      1 <0>        -0.0288
     25 C20         9.8117    2.1721    4.9952 C.ar      1 <0>        -0.0472
     26 S1          8.7686    3.4959    4.4334 S.3       1 <0>        -0.1190
     27 C21         9.1290    4.6617    5.7366 C.2       1 <0>         0.5378
     28 O2          8.6938    5.7876    5.8940 O.2       1 <0>        -0.4757
     29 N2          9.9954    3.9765    6.5085 N.am      1 <0>        -0.6198
     30 H4         10.3601    4.3913    7.3060 H         1 <0>         0.4155
     31 O3         11.8821    2.2920    7.9872 O.3       1 <0>        -0.6862
     32 O4         10.2611   -0.6007    2.6738 O.3       1 <0>        -0.5546
     33 H5         -0.9591    1.9053    0.0259 H         1 <0>         0.1264
     34 H6          1.1563    3.1654    0.0076 H         1 <0>         0.1271
     35 H7          3.3051    1.9634   -0.0196 H         1 <0>         0.1226
     36 H8          1.2231   -1.7588   -0.0176 H         1 <0>         0.1230
     37 H9         -0.9258   -0.5567    0.0082 H         1 <0>         0.1266
     38 H10         3.5884   -1.6586   -0.5549 H         1 <0>         0.0664
     39 H11         4.4573   -0.1052   -0.5563 H         1 <0>         0.0634
     40 H12         4.1384   -3.3621    1.8825 H         1 <0>         0.0941
     41 H13         5.2621   -3.6276    0.5126 H         1 <0>         0.0862
     42 H14         5.9094   -4.6038    2.9410 H         1 <0>         0.0929
     43 H15         7.1766   -3.7835    1.9705 H         1 <0>         0.0772
     44 H16         5.4723   -2.6272    4.2452 H         1 <0>         0.1127
     45 H17         7.2486   -2.5332    4.0312 H         1 <0>         0.0938
     46 H18         8.0123   -1.3844    1.9531 H         1 <0>         0.4260
     47 H19         7.4426    0.5869    4.0528 H         1 <0>         0.1423
     48 H20         8.1907   -1.0090    4.3012 H         1 <0>         0.1380
     49 H21        11.2148   -0.8862    4.8589 H         1 <0>         0.1129
     50 H22        12.2655   -0.0372    6.9160 H         1 <0>         0.1174
     51 H23        10.4122   -1.3684    3.2420 H         1 <0>         0.3834
     52 H24         7.3198    0.0929    1.7231 H         1 <0>         0.4267
@<TRIPOS>BOND
     1    1    6 ar
     2    1    2 ar
     3    1   33 1
     4    2    3 ar
     5    2   34 1
     6    3    4 ar
     7    3   35 1
     8    4    5 ar
     9    4    7 1
    10    5    6 ar
    11    5   36 1
    12    6   37 1
    13    7    8 1
    14    7   38 1
    15    7   39 1
    16    8    9 1
    17    9   10 1
    18    9   14 1
    19    9   11 1
    20   11   12 1
    21   11   40 1
    22   11   41 1
    23   12   13 1
    24   12   42 1
    25   12   43 1
    26   13   14 1
    27   13   44 1
    28   13   45 1
    29   14   15 1
    30   14   16 1
    31   16   17 1
    32   16   46 1
    33   16   52 1
    34   17   18 1
    35   17   47 1
    36   17   48 1
    37   18   19 1
    38   18   20 1
    39   18   32 1
    40   20   25 ar
    41   20   21 ar
    42   21   22 ar
    43   21   49 1
    44   22   23 ar
    45   22   50 1
    46   23   24 ar
    47   23   31 1
    48   24   29 1
    49   24   25 ar
    50   25   26 1
    51   26   27 1
    52   27   28 2
    53   27   29 am
    54   29   30 1
    55   32   51 1
@<TRIPOS>MOLECULE
CHEMBL1221679
   44    46     0     0     0
SMALL
USER_CHARGES

@<TRIPOS>ATOM
      1 C1         -0.0167    1.3796    0.0096 C.ar      1 <0>        -0.0378
      2 C2          1.1829    2.0705    0.0019 C.ar      1 <0>        -0.2401
      3 C3          2.3903    1.4051   -0.0137 C.ar      1 <0>         0.3004
      4 C4          2.4377   -0.0032   -0.0217 C.ar      1 <0>        -0.0287
      5 C5          1.2054   -0.6693   -0.0130 C.ar      1 <0>        -0.0476
      6 C6          0.0021   -0.0041    0.0020 C.ar      1 <0>        -0.2335
      7 C7         -1.2907   -0.7785    0.0107 C.3       1 <0>         0.1636
      8 H1         -1.1640   -1.6905    0.5940 H         1 <0>         0.1152
      9 C8         -1.6778   -1.1407   -1.4245 C.3       1 <0>        -0.0492
     10 N1         -2.9380   -1.8956   -1.4160 N.4       1 <0>        -0.5027
     11 C9         -3.3097   -2.2434   -2.7940 C.3       1 <0>         0.0258
     12 C10        -2.3004   -3.2036   -3.3628 C.3       1 <0>        -0.1494
     13 C11        -2.0767   -2.9975   -4.8732 C.3       1 <0>        -0.1154
     14 C12        -3.3873   -2.7432   -5.6421 C.3       1 <0>        -0.1287
     15 C13        -4.5074   -3.6364   -5.1819 C.3       1 <0>        -0.1247
     16 C14        -5.3250   -2.8850   -4.1115 C.3       1 <0>        -0.1245
     17 C15        -4.6931   -2.9255   -2.8010 C.3       1 <0>        -0.1288
     18 O1         -2.3211    0.0211    0.5946 O.3       1 <0>        -0.5547
     19 S1          1.6714   -2.3835   -0.0263 S.3       1 <0>        -0.1201
     20 C16         3.4422   -2.1558   -0.0424 C.2       1 <0>         0.5379
     21 O2          4.3192   -2.9998   -0.0552 O.2       1 <0>        -0.4757
     22 N2          3.5628   -0.8137   -0.0368 N.am      1 <0>        -0.6196
     23 H2          4.4451   -0.4107   -0.0434 H         1 <0>         0.4155
     24 O3          3.5491    2.1163   -0.0218 O.3       1 <0>        -0.6863
     25 H3         -0.9553    1.9136    0.0259 H         1 <0>         0.1129
     26 H4          1.1728    3.1505    0.0078 H         1 <0>         0.1174
     27 H5         -1.8046   -0.2287   -2.0078 H         1 <0>         0.1357
     28 H6         -0.8919   -1.7507   -1.8699 H         1 <0>         0.1417
     29 H7         -2.8207   -2.7399   -0.8761 H         1 <0>         0.4243
     30 H8         -3.3438   -1.3401   -3.4031 H         1 <0>         0.1389
     31 H9         -1.3517   -3.0665   -2.8438 H         1 <0>         0.0870
     32 H10        -2.6486   -4.2225   -3.1937 H         1 <0>         0.0907
     33 H11        -1.4135   -2.1445   -5.0171 H         1 <0>         0.0719
     34 H12        -1.5962   -3.8865   -5.2818 H         1 <0>         0.0788
     35 H13        -3.6837   -1.7040   -5.4997 H         1 <0>         0.0627
     36 H14        -3.2123   -2.9157   -6.7040 H         1 <0>         0.0713
     37 H15        -5.1499   -3.8830   -6.0272 H         1 <0>         0.0731
     38 H16        -4.0949   -4.5498   -4.7533 H         1 <0>         0.0708
     39 H17        -5.4359   -1.8448   -4.4178 H         1 <0>         0.0707
     40 H18        -6.3141   -3.3375   -4.0406 H         1 <0>         0.0804
     41 H19        -4.5752   -3.9659   -2.4980 H         1 <0>         0.0877
     42 H20        -5.3389   -2.4214   -2.0820 H         1 <0>         0.0813
     43 H21        -2.4884    0.8504    0.1263 H         1 <0>         0.3835
     44 H22        -3.6655   -1.3310   -1.0037 H         1 <0>         0.4286
@<TRIPOS>BOND
     1    1    6 ar
     2    1    2 ar
     3    1   25 1
     4    2    3 ar
     5    2   26 1
     6    3    4 ar
     7    3   24 1
     8    4   22 1
     9    4    5 ar
    10    5    6 ar
    11    5   19 1
    12    6    7 1
    13    7    8 1
    14    7    9 1
    15    7   18 1
    16    9   10 1
    17    9   27 1
    18    9   28 1
    19   10   11 1
    20   10   29 1
    21   10   44 1
    22   11   17 1
    23   11   12 1
    24   11   30 1
    25   12   13 1
    26   12   31 1
    27   12   32 1
    28   13   14 1
    29   13   33 1
    30   13   34 1
    31   14   15 1
    32   14   35 1
    33   14   36 1
    34   15   16 1
    35   15   37 1
    36   15   38 1
    37   16   17 1
    38   16   39 1
    39   16   40 1
    40   17   41 1
    41   17   42 1
    42   18   43 1
    43   19   20 1
    44   20   21 2
    45   20   22 am
    46   22   23 1
@<TRIPOS>MOLECULE
CHEMBL345618
   60    61     0     0     0
SMALL
USER_CHARGES

@<TRIPOS>ATOM
      1 C1         -0.0187    1.5258    0.0104 C.3       1 <0>        -0.1850
      2 C2          0.0021   -0.0041    0.0020 C.3       1 <0>         0.0258
      3 C3          0.7182   -0.4975   -1.2568 C.3       1 <0>        -0.1463
      4 C4          0.8493   -2.0210   -1.2049 C.3       1 <0>        -0.1324
      5 C5          1.5654   -2.5144   -2.4637 C.3       1 <0>        -0.1343
      6 C6          1.6964   -4.0379   -2.4119 C.3       1 <0>         0.1355
      7 N1          2.3821   -4.5104   -3.6172 N.am      1 <0>        -0.7139
      8 C7          2.6104   -5.8273   -3.7902 C.2       1 <0>         0.6476
      9 O1          2.2475   -6.6228   -2.9464 O.2       1 <0>        -0.5676
     10 O2          3.2406   -6.2615   -4.8979 O.3       1 <0>        -0.3582
     11 C8          3.4493   -7.6703   -5.0155 C.3       1 <0>         0.1299
     12 C9          4.1633   -7.9661   -6.3092 C.ar      1 <0>        -0.1054
     13 C10         3.4367   -8.2058   -7.4606 C.ar      1 <0>        -0.0938
     14 C11         4.0917   -8.4771   -8.6473 C.ar      1 <0>        -0.1224
     15 C12         5.4732   -8.5083   -8.6828 C.ar      1 <0>        -0.1044
     16 C13         6.1998   -8.2677   -7.5317 C.ar      1 <0>        -0.1222
     17 C14         5.5449   -7.9921   -6.3459 C.ar      1 <0>        -0.0936
     18 N2         -1.3761   -0.5125    0.0124 N.4       1 <0>        -0.5062
     19 C15        -2.0260   -0.1396    1.2760 C.3       1 <0>        -0.0465
     20 C16        -3.4614   -0.6692    1.2868 C.3       1 <0>         0.1375
     21 C17        -4.1668   -0.1832    2.5267 C.ar      1 <0>        -0.1364
     22 C18        -3.9533   -0.8190    3.7357 C.ar      1 <0>        -0.0987
     23 C19        -4.5980   -0.3770    4.8759 C.ar      1 <0>        -0.1233
     24 C20        -5.4600    0.7058    4.8087 C.ar      1 <0>         0.1048
     25 C21        -5.6745    1.3460    3.5920 C.ar      1 <0>         0.0900
     26 C22        -5.0215    0.9009    2.4538 C.ar      1 <0>        -0.1130
     27 O3         -6.5196    2.4092    3.5210 O.3       1 <0>        -0.4824
     28 O4         -6.0953    1.1416    5.9294 O.3       1 <0>        -0.4834
     29 O5         -3.4420   -2.0981    1.2790 O.3       1 <0>        -0.5453
     30 H1          1.0039    1.9031    0.0027 H         1 <0>         0.1078
     31 H2         -0.5459    1.8868   -0.8726 H         1 <0>         0.0835
     32 H3         -0.5289    1.8773    0.9072 H         1 <0>         0.0814
     33 H4          0.5293   -0.3651    0.8851 H         1 <0>         0.1407
     34 H5          0.1430   -0.2121   -2.1375 H         1 <0>         0.0919
     35 H6          1.7103   -0.0491   -1.3098 H         1 <0>         0.1159
     36 H7          1.4245   -2.3064   -0.3242 H         1 <0>         0.0848
     37 H8         -0.1428   -2.4694   -1.1520 H         1 <0>         0.0638
     38 H9          0.9902   -2.2290   -3.3445 H         1 <0>         0.0791
     39 H10         2.5575   -2.0660   -2.5167 H         1 <0>         0.0825
     40 H11         2.2717   -4.3233   -1.5311 H         1 <0>         0.0733
     41 H12         0.7044   -4.4863   -2.3589 H         1 <0>         0.0717
     42 H13         2.6719   -3.8753   -4.2908 H         1 <0>         0.4094
     43 H14         4.0542   -8.0191   -4.1786 H         1 <0>         0.0796
     44 H15         2.4869   -8.1821   -5.0064 H         1 <0>         0.0795
     45 H16         2.3573   -8.1815   -7.4328 H         1 <0>         0.1243
     46 H17         3.5240   -8.6651   -9.5466 H         1 <0>         0.1277
     47 H18         5.9849   -8.7210   -9.6098 H         1 <0>         0.1272
     48 H19         7.2792   -8.2924   -7.5593 H         1 <0>         0.1278
     49 H20         6.1126   -7.8005   -5.4473 H         1 <0>         0.1245
     50 H21        -1.8879   -0.1129   -0.7598 H         1 <0>         0.4270
     51 H22        -1.4732   -0.5714    2.1102 H         1 <0>         0.1379
     52 H23        -2.0386    0.9461    1.3715 H         1 <0>         0.1460
     53 H24        -3.9886   -0.3081    0.4038 H         1 <0>         0.1317
     54 H25        -3.2817   -1.6631    3.7893 H         1 <0>         0.1306
     55 H26        -4.4301   -0.8758    5.8189 H         1 <0>         0.1435
     56 H27        -5.1833    1.3984    1.5089 H         1 <0>         0.1389
     57 H28        -6.0907    3.2631    3.6693 H         1 <0>         0.3945
     58 H29        -5.6059    1.8141    6.4227 H         1 <0>         0.3972
     59 H30        -2.9878   -2.4894    2.0376 H         1 <0>         0.3893
     60 H31        -1.3644   -1.5176   -0.0760 H         1 <0>         0.4306
@<TRIPOS>BOND
     1    1    2 1
     2    1   30 1
     3    1   31 1
     4    1   32 1
     5    2    3 1
     6    2   18 1
     7    2   33 1
     8    3    4 1
     9    3   34 1
    10    3   35 1
    11    4    5 1
    12    4   36 1
    13    4   37 1
    14    5    6 1
    15    5   38 1
    16    5   39 1
    17    6    7 1
    18    6   40 1
    19    6   41 1
    20    7    8 am
    21    7   42 1
    22    8    9 2
    23    8   10 1
    24   10   11 1
    25   11   12 1
    26   11   43 1
    27   11   44 1
    28   12   17 ar
    29   12   13 ar
    30   13   14 ar
    31   13   45 1
    32   14   15 ar
    33   14   46 1
    34   15   16 ar
    35   15   47 1
    36   16   17 ar
    37   16   48 1
    38   17   49 1
    39   18   19 1
    40   18   50 1
    41   18   60 1
    42   19   20 1
    43   19   51 1
    44   19   52 1
    45   20   21 1
    46   20   29 1
    47   20   53 1
    48   21   26 ar
    49   21   22 ar
    50   22   23 ar
    51   22   54 1
    52   23   24 ar
    53   23   55 1
    54   24   25 ar
    55   24   28 1
    56   25   26 ar
    57   25   27 1
    58   26   56 1
    59   27   57 1
    60   28   58 1
    61   29   59 1
@<TRIPOS>MOLECULE
CHEMBL345618
   60    61     0     0     0
SMALL
USER_CHARGES

@<TRIPOS>ATOM
      1 C1         -0.0187    1.5258    0.0104 C.3       1 <0>        -0.1850
      2 C2          0.0021   -0.0041    0.0020 C.3       1 <0>         0.0254
      3 C3          0.7182   -0.4975   -1.2568 C.3       1 <0>        -0.1460
      4 C4          0.8493   -2.0210   -1.2049 C.3       1 <0>        -0.1321
      5 C5          1.5654   -2.5144   -2.4637 C.3       1 <0>        -0.1344
      6 C6          1.6964   -4.0379   -2.4119 C.3       1 <0>         0.1355
      7 N1          2.3821   -4.5104   -3.6172 N.am      1 <0>        -0.7138
      8 C7          2.6104   -5.8273   -3.7902 C.2       1 <0>         0.6477
      9 O1          2.2475   -6.6228   -2.9464 O.2       1 <0>        -0.5679
     10 O2          3.2406   -6.2615   -4.8979 O.3       1 <0>        -0.3581
     11 C8          3.4493   -7.6703   -5.0155 C.3       1 <0>         0.1299
     12 C9          4.1633   -7.9661   -6.3092 C.ar      1 <0>        -0.1054
     13 C10         3.4367   -8.2058   -7.4606 C.ar      1 <0>        -0.0938
     14 C11         4.0917   -8.4771   -8.6473 C.ar      1 <0>        -0.1224
     15 C12         5.4732   -8.5083   -8.6828 C.ar      1 <0>        -0.1043
     16 C13         6.1998   -8.2677   -7.5317 C.ar      1 <0>        -0.1222
     17 C14         5.5449   -7.9921   -6.3459 C.ar      1 <0>        -0.0936
     18 N2         -1.3761   -0.5125    0.0124 N.4       1 <0>        -0.5051
     19 C15        -2.0260   -0.1396    1.2760 C.3       1 <0>        -0.0475
     20 C16        -3.4614   -0.6692    1.2868 C.3       1 <0>         0.1378
     21 C17        -4.1282   -0.2867    2.5830 C.ar      1 <0>        -0.1367
     22 C18        -4.7300    0.9515    2.7099 C.ar      1 <0>        -0.0980
     23 C19        -5.3429    1.3072    3.8969 C.ar      1 <0>        -0.1235
     24 C20        -5.3555    0.4217    4.9626 C.ar      1 <0>         0.1047
     25 C21        -4.7502   -0.8248    4.8347 C.ar      1 <0>         0.0901
     26 C22        -4.1418   -1.1768    3.6406 C.ar      1 <0>        -0.1135
     27 O3         -4.7600   -1.6973    5.8778 O.3       1 <0>        -0.4846
     28 O4         -5.9577    0.7701    6.1311 O.3       1 <0>        -0.4851
     29 O5         -4.1863   -0.1032    0.1931 O.3       1 <0>        -0.5464
     30 H1          1.0039    1.9031    0.0027 H         1 <0>         0.1080
     31 H2         -0.5459    1.8868   -0.8726 H         1 <0>         0.0833
     32 H3         -0.5289    1.8773    0.9072 H         1 <0>         0.0814
     33 H4          0.5293   -0.3651    0.8851 H         1 <0>         0.1414
     34 H5          0.1430   -0.2121   -2.1375 H         1 <0>         0.0919
     35 H6          1.7103   -0.0491   -1.3098 H         1 <0>         0.1160
     36 H7          1.4245   -2.3064   -0.3242 H         1 <0>         0.0853
     37 H8         -0.1428   -2.4694   -1.1520 H         1 <0>         0.0626
     38 H9          0.9902   -2.2290   -3.3445 H         1 <0>         0.0792
     39 H10         2.5575   -2.0660   -2.5167 H         1 <0>         0.0828
     40 H11         2.2717   -4.3233   -1.5311 H         1 <0>         0.0735
     41 H12         0.7044   -4.4863   -2.3589 H         1 <0>         0.0712
     42 H13         2.6719   -3.8753   -4.2908 H         1 <0>         0.4095
     43 H14         4.0542   -8.0191   -4.1786 H         1 <0>         0.0796
     44 H15         2.4869   -8.1821   -5.0064 H         1 <0>         0.0794
     45 H16         2.3573   -8.1815   -7.4328 H         1 <0>         0.1242
     46 H17         3.5240   -8.6651   -9.5466 H         1 <0>         0.1277
     47 H18         5.9849   -8.7210   -9.6098 H         1 <0>         0.1273
     48 H19         7.2792   -8.2924   -7.5593 H         1 <0>         0.1279
     49 H20         6.1126   -7.8005   -5.4473 H         1 <0>         0.1246
     50 H21        -1.8879   -0.1129   -0.7598 H         1 <0>         0.4296
     51 H22        -1.4732   -0.5714    2.1102 H         1 <0>         0.1457
     52 H23        -2.0386    0.9461    1.3715 H         1 <0>         0.1397
     53 H24        -3.4489   -1.7549    1.1913 H         1 <0>         0.1328
     54 H25        -4.7209    1.6426    1.8800 H         1 <0>         0.1305
     55 H26        -5.8117    2.2753    3.9936 H         1 <0>         0.1432
     56 H27        -3.6745   -2.1451    3.5375 H         1 <0>         0.1388
     57 H28        -5.5243   -2.2896    5.8880 H         1 <0>         0.3970
     58 H29        -6.8936    0.5312    6.1778 H         1 <0>         0.3988
     59 H30        -4.2382    0.8622    0.2132 H         1 <0>         0.3885
     60 H31        -1.3644   -1.5176   -0.0760 H         1 <0>         0.4269
@<TRIPOS>BOND
     1    1    2 1
     2    1   30 1
     3    1   31 1
     4    1   32 1
     5    2    3 1
     6    2   18 1
     7    2   33 1
     8    3    4 1
     9    3   34 1
    10    3   35 1
    11    4    5 1
    12    4   36 1
    13    4   37 1
    14    5    6 1
    15    5   38 1
    16    5   39 1
    17    6    7 1
    18    6   40 1
    19    6   41 1
    20    7    8 am
    21    7   42 1
    22    8    9 2
    23    8   10 1
    24   10   11 1
    25   11   12 1
    26   11   43 1
    27   11   44 1
    28   12   17 ar
    29   12   13 ar
    30   13   14 ar
    31   13   45 1
    32   14   15 ar
    33   14   46 1
    34   15   16 ar
    35   15   47 1
    36   16   17 ar
    37   16   48 1
    38   17   49 1
    39   18   19 1
    40   18   50 1
    41   18   60 1
    42   19   20 1
    43   19   51 1
    44   19   52 1
    45   20   21 1
    46   20   29 1
    47   20   53 1
    48   21   26 ar
    49   21   22 ar
    50   22   23 ar
    51   22   54 1
    52   23   24 ar
    53   23   55 1
    54   24   25 ar
    55   24   28 1
    56   25   26 ar
    57   25   27 1
    58   26   56 1
    59   27   57 1
    60   28   58 1
    61   29   59 1
@<TRIPOS>MOLECULE
CHEMBL345618
   60    61     0     0     0
SMALL
USER_CHARGES

@<TRIPOS>ATOM
      1 C1         -0.0187    1.5258    0.0104 C.3       1 <0>        -0.1848
      2 C2          0.0021   -0.0041    0.0020 C.3       1 <0>         0.0257
      3 C3         -1.4333   -0.5336    0.0129 C.3       1 <0>        -0.1464
      4 C4         -1.4133   -2.0590    0.1302 C.3       1 <0>        -0.1320
      5 C5         -2.8486   -2.5886    0.1411 C.3       1 <0>        -0.1345
      6 C6         -2.8286   -4.1140    0.2584 C.3       1 <0>         0.1355
      7 N1         -4.2030   -4.6210    0.2688 N.am      1 <0>        -0.7139
      8 C7         -4.4318   -5.9457    0.3656 C.2       1 <0>         0.6477
      9 O1         -3.4982   -6.7194    0.4443 O.2       1 <0>        -0.5678
     10 O2         -5.6949   -6.4117    0.3752 O.3       1 <0>        -0.3581
     11 C8         -5.8636   -7.8268    0.4802 C.3       1 <0>         0.1299
     12 C9         -7.3334   -8.1593    0.4752 C.ar      1 <0>        -0.1054
     13 C10        -8.0335   -8.2148    1.6659 C.ar      1 <0>        -0.0936
     14 C11        -9.3818   -8.5198    1.6613 C.ar      1 <0>        -0.1222
     15 C12       -10.0301   -8.7689    0.4661 C.ar      1 <0>        -0.1043
     16 C13        -9.3302   -8.7125   -0.7246 C.ar      1 <0>        -0.1224
     17 C14        -7.9828   -8.4033   -0.7205 C.ar      1 <0>        -0.0938
     18 N2          0.6897   -0.4778   -1.2066 N.4       1 <0>        -0.5061
     19 C15         2.1002   -0.0703   -1.1590 C.3       1 <0>        -0.0465
     20 C16         2.8163   -0.5637   -2.4178 C.3       1 <0>         0.1374
     21 C17         4.2874   -0.2536   -2.3131 C.ar      1 <0>        -0.1364
     22 C18         4.7446    1.0220   -2.5875 C.ar      1 <0>        -0.0990
     23 C19         6.0930    1.3115   -2.4928 C.ar      1 <0>        -0.1235
     24 C20         6.9896    0.3223   -2.1218 C.ar      1 <0>         0.1048
     25 C21         6.5294   -0.9615   -1.8452 C.ar      1 <0>         0.0903
     26 C22         5.1759   -1.2437   -1.9373 C.ar      1 <0>        -0.1129
     27 O3          7.4054   -1.9357   -1.4807 O.3       1 <0>        -0.4823
     28 O4          8.3165    0.6053   -2.0286 O.3       1 <0>        -0.4835
     29 O5          2.2715    0.0930   -3.5641 O.3       1 <0>        -0.5450
     30 H1          1.0039    1.9031    0.0027 H         1 <0>         0.0810
     31 H2         -0.5459    1.8868   -0.8726 H         1 <0>         0.0837
     32 H3         -0.5289    1.8773    0.9072 H         1 <0>         0.1078
     33 H4          0.5293   -0.3651    0.8851 H         1 <0>         0.1410
     34 H5         -1.9701   -0.1109    0.8621 H         1 <0>         0.1160
     35 H6         -1.9334   -0.2470   -0.9122 H         1 <0>         0.0922
     36 H7         -0.8764   -2.4817   -0.7190 H         1 <0>         0.0627
     37 H8         -0.9132   -2.3457    1.0553 H         1 <0>         0.0851
     38 H9         -3.3855   -2.1659    0.9903 H         1 <0>         0.0828
     39 H10        -3.3487   -2.3019   -0.7840 H         1 <0>         0.0793
     40 H11        -2.2918   -4.5367   -0.5908 H         1 <0>         0.0713
     41 H12        -2.3285   -4.4006    1.1836 H         1 <0>         0.0734
     42 H13        -4.9483   -4.0034    0.2060 H         1 <0>         0.4095
     43 H14        -5.3779   -8.3143   -0.3652 H         1 <0>         0.0794
     44 H15        -5.4147   -8.1783    1.4092 H         1 <0>         0.0796
     45 H16        -7.5270   -8.0202    2.5997 H         1 <0>         0.1245
     46 H17        -9.9286   -8.5638    2.5916 H         1 <0>         0.1278
     47 H18       -11.0833   -9.0078    0.4626 H         1 <0>         0.1273
     48 H19        -9.8366   -8.9074   -1.6584 H         1 <0>         0.1277
     49 H20        -7.4368   -8.3556   -1.6510 H         1 <0>         0.1243
     50 H21         0.6317   -1.4840   -1.2540 H         1 <0>         0.4270
     51 H22         2.1628    1.0167   -1.1079 H         1 <0>         0.1395
     52 H23         2.5740   -0.5034   -0.2781 H         1 <0>         0.1446
     53 H24         2.6781   -1.6404   -2.5160 H         1 <0>         0.1316
     54 H25         4.0468    1.7939   -2.8767 H         1 <0>         0.1303
     55 H26         6.4477    2.3086   -2.7084 H         1 <0>         0.1434
     56 H27         4.8156   -2.2383   -1.7195 H         1 <0>         0.1391
     57 H28         7.5517   -1.9962   -0.5267 H         1 <0>         0.3947
     58 H29         8.5935    0.9086   -1.1532 H         1 <0>         0.3972
     59 H30         2.3595    1.0558   -3.5447 H         1 <0>         0.3888
     60 H31         0.2511   -0.0769   -2.0221 H         1 <0>         0.4305
@<TRIPOS>BOND
     1    1    2 1
     2    1   30 1
     3    1   31 1
     4    1   32 1
     5    2    3 1
     6    2   18 1
     7    2   33 1
     8    3    4 1
     9    3   34 1
    10    3   35 1
    11    4    5 1
    12    4   36 1
    13    4   37 1
    14    5    6 1
    15    5   38 1
    16    5   39 1
    17    6    7 1
    18    6   40 1
    19    6   41 1
    20    7    8 am
    21    7   42 1
    22    8    9 2
    23    8   10 1
    24   10   11 1
    25   11   12 1
    26   11   43 1
    27   11   44 1
    28   12   17 ar
    29   12   13 ar
    30   13   14 ar
    31   13   45 1
    32   14   15 ar
    33   14   46 1
    34   15   16 ar
    35   15   47 1
    36   16   17 ar
    37   16   48 1
    38   17   49 1
    39   18   19 1
    40   18   50 1
    41   18   60 1
    42   19   20 1
    43   19   51 1
    44   19   52 1
    45   20   21 1
    46   20   29 1
    47   20   53 1
    48   21   26 ar
    49   21   22 ar
    50   22   23 ar
    51   22   54 1
    52   23   24 ar
    53   23   55 1
    54   24   25 ar
    55   24   28 1
    56   25   26 ar
    57   25   27 1
    58   26   56 1
    59   27   57 1
    60   28   58 1
    61   29   59 1
@<TRIPOS>MOLECULE
CHEMBL345618
   60    61     0     0     0
SMALL
USER_CHARGES

@<TRIPOS>ATOM
      1 C1         -0.0187    1.5258    0.0104 C.3       1 <0>        -0.1855
      2 C2          0.0021   -0.0041    0.0020 C.3       1 <0>         0.0257
      3 C3         -1.4333   -0.5336    0.0129 C.3       1 <0>        -0.1461
      4 C4         -1.4133   -2.0590    0.1302 C.3       1 <0>        -0.1323
      5 C5         -2.8486   -2.5886    0.1411 C.3       1 <0>        -0.1343
      6 C6         -2.8286   -4.1140    0.2584 C.3       1 <0>         0.1356
      7 N1         -4.2030   -4.6210    0.2688 N.am      1 <0>        -0.7138
      8 C7         -4.4318   -5.9457    0.3656 C.2       1 <0>         0.6477
      9 O1         -3.4982   -6.7194    0.4443 O.2       1 <0>        -0.5677
     10 O2         -5.6949   -6.4117    0.3752 O.3       1 <0>        -0.3582
     11 C8         -5.8636   -7.8268    0.4802 C.3       1 <0>         0.1299
     12 C9         -7.3334   -8.1593    0.4752 C.ar      1 <0>        -0.1054
     13 C10        -8.0335   -8.2148    1.6659 C.ar      1 <0>        -0.0936
     14 C11        -9.3818   -8.5198    1.6613 C.ar      1 <0>        -0.1222
     15 C12       -10.0301   -8.7689    0.4661 C.ar      1 <0>        -0.1044
     16 C13        -9.3302   -8.7125   -0.7246 C.ar      1 <0>        -0.1224
     17 C14        -7.9828   -8.4033   -0.7205 C.ar      1 <0>        -0.0938
     18 N2          0.6897   -0.4778   -1.2066 N.4       1 <0>        -0.5052
     19 C15         2.1002   -0.0703   -1.1590 C.3       1 <0>        -0.0475
     20 C16         2.8163   -0.5637   -2.4178 C.3       1 <0>         0.1378
     21 C17         4.2634   -0.1456   -2.3691 C.ar      1 <0>        -0.1367
     22 C18         5.1860   -0.9306   -1.7028 C.ar      1 <0>        -0.0977
     23 C19         6.5146   -0.5515   -1.6552 C.ar      1 <0>        -0.1233
     24 C20         6.9241    0.6174   -2.2765 C.ar      1 <0>         0.1047
     25 C21         5.9955    1.4073   -2.9474 C.ar      1 <0>         0.0898
     26 C22         4.6662    1.0190   -2.9954 C.ar      1 <0>        -0.1137
     27 O3          6.3926    2.5554   -3.5587 O.3       1 <0>        -0.4847
     28 O4          8.2306    0.9921   -2.2302 O.3       1 <0>        -0.4851
     29 O5          2.7343   -1.9888   -2.4849 O.3       1 <0>        -0.5468
     30 H1          1.0039    1.9031    0.0027 H         1 <0>         0.0822
     31 H2         -0.5459    1.8868   -0.8726 H         1 <0>         0.0835
     32 H3         -0.5289    1.8773    0.9072 H         1 <0>         0.1079
     33 H4          0.5293   -0.3651    0.8851 H         1 <0>         0.1407
     34 H5         -1.9701   -0.1109    0.8621 H         1 <0>         0.1159
     35 H6         -1.9334   -0.2470   -0.9122 H         1 <0>         0.0919
     36 H7         -0.8764   -2.4817   -0.7190 H         1 <0>         0.0636
     37 H8         -0.9132   -2.3457    1.0553 H         1 <0>         0.0848
     38 H9         -3.3855   -2.1659    0.9903 H         1 <0>         0.0826
     39 H10        -3.3487   -2.3019   -0.7840 H         1 <0>         0.0791
     40 H11        -2.2918   -4.5367   -0.5908 H         1 <0>         0.0716
     41 H12        -2.3285   -4.4006    1.1836 H         1 <0>         0.0733
     42 H13        -4.9483   -4.0034    0.2060 H         1 <0>         0.4094
     43 H14        -5.3779   -8.3143   -0.3652 H         1 <0>         0.0794
     44 H15        -5.4147   -8.1783    1.4092 H         1 <0>         0.0796
     45 H16        -7.5270   -8.0202    2.5997 H         1 <0>         0.1246
     46 H17        -9.9286   -8.5638    2.5916 H         1 <0>         0.1278
     47 H18       -11.0833   -9.0078    0.4626 H         1 <0>         0.1272
     48 H19        -9.8366   -8.9074   -1.6584 H         1 <0>         0.1277
     49 H20        -7.4368   -8.3556   -1.6510 H         1 <0>         0.1243
     50 H21         0.6317   -1.4840   -1.2540 H         1 <0>         0.4297
     51 H22         2.1628    1.0167   -1.1079 H         1 <0>         0.1470
     52 H23         2.5740   -0.5034   -0.2781 H         1 <0>         0.1381
     53 H24         2.3425   -0.1306   -3.2988 H         1 <0>         0.1329
     54 H25         4.8681   -1.8419   -1.2182 H         1 <0>         0.1308
     55 H26         7.2332   -1.1661   -1.1335 H         1 <0>         0.1434
     56 H27         3.9442    1.6283   -3.5187 H         1 <0>         0.1386
     57 H28         6.6625    2.4376   -4.4798 H         1 <0>         0.3969
     58 H29         8.7639    0.6505   -2.9610 H         1 <0>         0.3988
     59 H30         3.1369   -2.4418   -1.7314 H         1 <0>         0.3890
     60 H31         0.2511   -0.0769   -2.0221 H         1 <0>         0.4269
@<TRIPOS>BOND
     1    1    2 1
     2    1   30 1
     3    1   31 1
     4    1   32 1
     5    2    3 1
     6    2   18 1
     7    2   33 1
     8    3    4 1
     9    3   34 1
    10    3   35 1
    11    4    5 1
    12    4   36 1
    13    4   37 1
    14    5    6 1
    15    5   38 1
    16    5   39 1
    17    6    7 1
    18    6   40 1
    19    6   41 1
    20    7    8 am
    21    7   42 1
    22    8    9 2
    23    8   10 1
    24   10   11 1
    25   11   12 1
    26   11   43 1
    27   11   44 1
    28   12   17 ar
    29   12   13 ar
    30   13   14 ar
    31   13   45 1
    32   14   15 ar
    33   14   46 1
    34   15   16 ar
    35   15   47 1
    36   16   17 ar
    37   16   48 1
    38   17   49 1
    39   18   19 1
    40   18   50 1
    41   18   60 1
    42   19   20 1
    43   19   51 1
    44   19   52 1
    45   20   21 1
    46   20   29 1
    47   20   53 1
    48   21   26 ar
    49   21   22 ar
    50   22   23 ar
    51   22   54 1
    52   23   24 ar
    53   23   55 1
    54   24   25 ar
    55   24   28 1
    56   25   26 ar
    57   25   27 1
    58   26   56 1
    59   27   57 1
    60   28   58 1
    61   29   59 1
@<TRIPOS>MOLECULE
CHEMBL1078749
   67    70     0     0     0
SMALL
USER_CHARGES

@<TRIPOS>ATOM
      1 C1          7.0532  -10.5930    6.4271 C.ar      1 <0>        -0.1222
      2 C2          8.2428   -9.8889    6.4386 C.ar      1 <0>        -0.1176
      3 C3          8.3123   -8.6398    5.8507 C.ar      1 <0>        -0.1178
      4 C4          7.1924   -8.0949    5.2508 C.ar      1 <0>        -0.0866
      5 C5          6.0031   -8.7994    5.2384 C.ar      1 <0>        -0.1170
      6 C6          5.9332  -10.0479    5.8276 C.ar      1 <0>        -0.1170
      7 C7          7.2680   -6.7327    4.6107 C.3       1 <0>        -0.0741
      8 C8          7.6681   -6.8811    3.1414 C.3       1 <0>        -0.0774
      9 C9          7.7436   -5.5189    2.5013 C.ar      1 <0>        -0.0850
     10 C10         6.6202   -4.9725    1.9061 C.ar      1 <0>        -0.0810
     11 C11         6.6810   -3.7228    1.3159 C.ar      1 <0>        -0.1206
     12 C12         7.8641   -3.0128    1.3171 C.ar      1 <0>        -0.0894
     13 C13         9.0008   -3.5579    1.9161 C.ar      1 <0>        -0.1431
     14 C14         8.9310   -4.8171    2.5149 C.ar      1 <0>        -0.0512
     15 C15        10.2717   -2.8031    1.9207 C.2       1 <0>         0.5669
     16 O1         11.2602   -3.2804    2.4431 O.2       1 <0>        -0.5144
     17 N1         10.3346   -1.5857    1.3458 N.am      1 <0>        -0.6746
     18 C16        11.5082   -0.8304    1.4342 C.ar      1 <0>         0.1668
     19 C17        11.4392    0.5521    1.5484 C.ar      1 <0>        -0.1424
     20 C18        12.6001    1.2950    1.6361 C.ar      1 <0>        -0.0873
     21 C19        13.8303    0.6639    1.6098 C.ar      1 <0>        -0.1275
     22 C20        13.9025   -0.7123    1.4958 C.ar      1 <0>        -0.0873
     23 C21        12.7453   -1.4616    1.4139 C.ar      1 <0>        -0.1181
     24 C22        15.0950    1.4779    1.7052 C.3       1 <0>        -0.0967
     25 C23        15.4920    1.6331    3.1747 C.3       1 <0>        -0.0080
     26 N2         16.7248    2.4265    3.2676 N.4       1 <0>        -0.5052
     27 C24        17.1060    2.5755    4.6785 C.3       1 <0>        -0.0428
     28 C25        18.3900    3.4018    4.7753 C.3       1 <0>         0.1417
     29 H1         18.2224    4.3862    4.3383 H         1 <0>         0.1338
     30 C26        18.7810    3.5547    6.2227 C.ar      1 <0>        -0.2004
     31 C27        18.3942    4.6769    6.9397 C.ar      1 <0>        -0.0549
     32 C28        18.7768    4.7750    8.2685 C.ar      1 <0>        -0.1643
     33 C29        19.5256    3.7582    8.8307 C.ar      1 <0>         0.1224
     34 N3         19.8759    2.7054    8.1182 N.ar      1 <0>        -0.4748
     35 C30        19.5246    2.5758    6.8536 C.ar      1 <0>         0.1174
     36 O2         19.4382    2.7381    4.0663 O.3       1 <0>        -0.5461
     37 H2          7.0001  -11.5708    6.8825 H         1 <0>         0.1225
     38 H3          9.1177  -10.3146    6.9073 H         1 <0>         0.1222
     39 H4          9.2415   -8.0894    5.8603 H         1 <0>         0.1202
     40 H5          5.1281   -8.3735    4.7701 H         1 <0>         0.1213
     41 H6          5.0039  -10.5981    5.8183 H         1 <0>         0.1230
     42 H7          6.2945   -6.2466    4.6748 H         1 <0>         0.0749
     43 H8          8.0111   -6.1278    5.1303 H         1 <0>         0.0736
     44 H9          8.6416   -7.3672    3.0772 H         1 <0>         0.0784
     45 H10         6.9250   -7.4860    2.6218 H         1 <0>         0.0800
     46 H11         5.6918   -5.5243    1.9021 H         1 <0>         0.1321
     47 H12         5.8007   -3.3022    0.8528 H         1 <0>         0.1339
     48 H13         7.9104   -2.0376    0.8554 H         1 <0>         0.1243
     49 H14         9.8060   -5.2428    2.9835 H         1 <0>         0.1371
     50 H15         9.5658   -1.2335    0.8706 H         1 <0>         0.4150
     51 H16        10.4787    1.0456    1.5683 H         1 <0>         0.1325
     52 H17        12.5471    2.3700    1.7249 H         1 <0>         0.1288
     53 H18        14.8648   -1.2021    1.4752 H         1 <0>         0.1284
     54 H19        12.8022   -2.5368    1.3293 H         1 <0>         0.1459
     55 H20        15.8945    0.9716    1.1644 H         1 <0>         0.0963
     56 H21        14.9274    2.4623    1.2682 H         1 <0>         0.0958
     57 H22        14.6924    2.1393    3.7155 H         1 <0>         0.1334
     58 H23        15.6596    0.6487    3.6117 H         1 <0>         0.1337
     59 H24        17.4649    1.9578    2.7670 H         1 <0>         0.4326
     60 H25        16.3064    3.0818    5.2193 H         1 <0>         0.1444
     61 H26        17.2736    1.5911    5.1155 H         1 <0>         0.1377
     62 H27        17.8092    5.4561    6.4738 H         1 <0>         0.1410
     63 H28        18.4935    5.6351    8.8570 H         1 <0>         0.1471
     64 H29        19.8276    3.8270    9.8653 H         1 <0>         0.1672
     65 H30        19.8257    1.6965    6.3035 H         1 <0>         0.1531
     66 H31        19.6417    1.8543    4.4017 H         1 <0>         0.3901
     67 H32        16.5696    3.3377    2.8631 H         1 <0>         0.4293
@<TRIPOS>BOND
     1    1    6 ar
     2    1    2 ar
     3    1   37 1
     4    2    3 ar
     5    2   38 1
     6    3    4 ar
     7    3   39 1
     8    4    5 ar
     9    4    7 1
    10    5    6 ar
    11    5   40 1
    12    6   41 1
    13    7    8 1
    14    7   42 1
    15    7   43 1
    16    8    9 1
    17    8   44 1
    18    8   45 1
    19    9   14 ar
    20    9   10 ar
    21   10   11 ar
    22   10   46 1
    23   11   12 ar
    24   11   47 1
    25   12   13 ar
    26   12   48 1
    27   13   14 ar
    28   13   15 1
    29   14   49 1
    30   15   16 2
    31   15   17 am
    32   17   18 1
    33   17   50 1
    34   18   23 ar
    35   18   19 ar
    36   19   20 ar
    37   19   51 1
    38   20   21 ar
    39   20   52 1
    40   21   22 ar
    41   21   24 1
    42   22   23 ar
    43   22   53 1
    44   23   54 1
    45   24   25 1
    46   24   55 1
    47   24   56 1
    48   25   26 1
    49   25   57 1
    50   25   58 1
    51   26   27 1
    52   26   59 1
    53   26   67 1
    54   27   28 1
    55   27   60 1
    56   27   61 1
    57   28   29 1
    58   28   30 1
    59   28   36 1
    60   30   35 ar
    61   30   31 ar
    62   31   32 ar
    63   31   62 1
    64   32   33 ar
    65   32   63 1
    66   33   34 ar
    67   33   64 1
    68   34   35 ar
    69   35   65 1
    70   36   66 1
@<TRIPOS>MOLECULE
CHEMBL1078576
   58    61     0     0     0
SMALL
USER_CHARGES

@<TRIPOS>ATOM
      1 C1          0.0525    1.3772   -0.0315 C.ar      1 <0>        -0.1162
      2 C2         -0.9814    2.0589    0.5800 C.ar      1 <0>        -0.0805
      3 C3         -2.0145    1.3552    1.2017 C.ar      1 <0>        -0.0118
      4 C4         -2.0013   -0.0377    1.2045 C.ar      1 <0>        -0.0159
      5 C5         -0.9555   -0.7195    0.5858 C.ar      1 <0>        -0.1401
      6 C6          0.0720   -0.0030   -0.0326 C.ar      1 <0>        -0.0790
      7 C7         -0.9329   -2.1977    0.5843 C.2       1 <0>         0.5669
      8 O1         -1.8276   -2.8197    1.1232 O.2       1 <0>        -0.5072
      9 N1          0.0794   -2.8556   -0.0146 N.am      1 <0>        -0.6742
     10 C8          0.1525   -4.2498    0.0670 C.ar      1 <0>         0.1666
     11 C9          1.3883   -4.8781    0.1528 C.ar      1 <0>        -0.1420
     12 C10         1.4570   -6.2551    0.2332 C.ar      1 <0>        -0.0877
     13 C11         0.2972   -7.0082    0.2283 C.ar      1 <0>        -0.1272
     14 C12        -0.9347   -6.3858    0.1430 C.ar      1 <0>        -0.0871
     15 C13        -1.0106   -5.0088    0.0681 C.ar      1 <0>        -0.1176
     16 C14         0.3760   -8.5106    0.3157 C.3       1 <0>        -0.0967
     17 C15         0.3443   -8.9385    1.7843 C.3       1 <0>        -0.0082
     18 N2          0.4211  -10.4030    1.8695 N.4       1 <0>        -0.5051
     19 C16         0.3907  -10.8137    3.2796 C.3       1 <0>        -0.0429
     20 C17         0.4707  -12.3391    3.3683 C.3       1 <0>         0.1418
     21 H1          1.3985  -12.6815    2.9100 H         1 <0>         0.1337
     22 C18         0.4395  -12.7604    4.8148 C.ar      1 <0>        -0.2004
     23 C19         1.6203  -12.9862    5.5060 C.ar      1 <0>        -0.0550
     24 C20         1.5433  -13.3725    6.8351 C.ar      1 <0>        -0.1644
     25 C21         0.3009  -13.5187    7.4231 C.ar      1 <0>         0.1225
     26 N3         -0.8014  -13.2958    6.7349 N.ar      1 <0>        -0.4748
     27 C22        -0.7660  -12.9212    5.4708 C.ar      1 <0>         0.1175
     28 O2         -0.6413  -12.9152    2.6802 O.3       1 <0>        -0.5462
     29 C23        -3.1207    2.0872    1.8566 C.2       1 <0>         0.2307
     30 N4         -3.2539    3.4434    1.9198 N.pl3     1 <0>        -0.5629
     31 H2         -2.6460    4.1008    1.5466 H         1 <0>         0.4214
     32 C24        -4.4081    3.7006    2.6093 C.2       1 <0>        -0.0343
     33 C25        -4.9420    2.5084    2.9444 C.2       1 <0>        -0.0228
     34 N5         -4.1462    1.5421    2.4720 N.2       1 <0>        -0.4672
     35 H3          0.8469    1.9265   -0.5148 H         1 <0>         0.1401
     36 H4         -0.9904    3.1389    0.5776 H         1 <0>         0.1279
     37 H5         -2.7980   -0.5868    1.6843 H         1 <0>         0.1532
     38 H6          0.8832   -0.5301   -0.5129 H         1 <0>         0.1296
     39 H7          0.7574   -2.3621   -0.5022 H         1 <0>         0.4148
     40 H8          2.2944   -4.2905    0.1562 H         1 <0>         0.1326
     41 H9          2.4175   -6.7443    0.2995 H         1 <0>         0.1287
     42 H10        -1.8386   -6.9768    0.1395 H         1 <0>         0.1286
     43 H11        -1.9732   -4.5230    0.0060 H         1 <0>         0.1467
     44 H12        -0.4722   -8.9501   -0.2091 H         1 <0>         0.0963
     45 H13         1.3038   -8.8531   -0.1426 H         1 <0>         0.0957
     46 H14         1.1926   -8.4990    2.3092 H         1 <0>         0.1335
     47 H15        -0.5835   -8.5960    2.2426 H         1 <0>         0.1339
     48 H16        -0.3641  -10.8098    1.3836 H         1 <0>         0.4326
     49 H17         1.2390  -10.3743    3.8044 H         1 <0>         0.1444
     50 H18        -0.5371  -10.4713    3.7378 H         1 <0>         0.1379
     51 H19         2.5772  -12.8644    5.0202 H         1 <0>         0.1410
     52 H20         2.4426  -13.5572    7.4039 H         1 <0>         0.1471
     53 H21         0.2323  -13.8193    8.4582 H         1 <0>         0.1671
     54 H22        -1.6900  -12.7427    4.9409 H         1 <0>         0.1532
     55 H23        -1.5019  -12.6535    3.0351 H         1 <0>         0.3902
     56 H24        -4.8141    4.6741    2.8414 H         1 <0>         0.1850
     57 H25        -5.8583    2.3590    3.4961 H         1 <0>         0.1772
     58 H26         1.2800  -10.7199    1.4453 H         1 <0>         0.4292
@<TRIPOS>BOND
     1    1    6 ar
     2    1    2 ar
     3    1   35 1
     4    2    3 ar
     5    2   36 1
     6    3    4 ar
     7    3   29 1
     8    4    5 ar
     9    4   37 1
    10    5    6 ar
    11    5    7 1
    12    6   38 1
    13    7    8 2
    14    7    9 am
    15    9   10 1
    16    9   39 1
    17   10   15 ar
    18   10   11 ar
    19   11   12 ar
    20   11   40 1
    21   12   13 ar
    22   12   41 1
    23   13   14 ar
    24   13   16 1
    25   14   15 ar
    26   14   42 1
    27   15   43 1
    28   16   17 1
    29   16   44 1
    30   16   45 1
    31   17   18 1
    32   17   46 1
    33   17   47 1
    34   18   19 1
    35   18   48 1
    36   18   58 1
    37   19   20 1
    38   19   49 1
    39   19   50 1
    40   20   21 1
    41   20   22 1
    42   20   28 1
    43   22   27 ar
    44   22   23 ar
    45   23   24 ar
    46   23   51 1
    47   24   25 ar
    48   24   52 1
    49   25   26 ar
    50   25   53 1
    51   26   27 ar
    52   27   54 1
    53   28   55 1
    54   29   34 2
    55   29   30 1
    56   30   31 1
    57   30   32 1
    58   32   33 2
    59   32   56 1
    60   33   34 1
    61   33   57 1
@<TRIPOS>MOLECULE
CHEMBL1078576
   59    62     0     0     0
SMALL
USER_CHARGES

@<TRIPOS>ATOM
      1 C1          0.0523    1.3772   -0.0314 C.ar      1 <0>        -0.1048
      2 C2         -0.9816    2.0588    0.5800 C.ar      1 <0>        -0.0462
      3 C3         -2.0147    1.3550    1.2017 C.ar      1 <0>        -0.0914
      4 C4         -2.0013   -0.0378    1.2045 C.ar      1 <0>        -0.0173
      5 C5         -0.9554   -0.7196    0.5859 C.ar      1 <0>        -0.1252
      6 C6          0.0720   -0.0030   -0.0325 C.ar      1 <0>        -0.0388
      7 C7         -0.9329   -2.1977    0.5844 C.2       1 <0>         0.5632
      8 O1         -1.8275   -2.8198    1.1234 O.2       1 <0>        -0.5081
      9 N1          0.0796   -2.8556   -0.0144 N.am      1 <0>        -0.6659
     10 C8          0.1528   -4.2498    0.0673 C.ar      1 <0>         0.1528
     11 C9          1.3885   -4.8780    0.1531 C.ar      1 <0>        -0.1353
     12 C10         1.4573   -6.2550    0.2336 C.ar      1 <0>        -0.0867
     13 C11         0.2975   -7.0082    0.2287 C.ar      1 <0>        -0.1153
     14 C12        -0.9344   -6.3858    0.1434 C.ar      1 <0>        -0.0882
     15 C13        -1.0104   -5.0089    0.0684 C.ar      1 <0>        -0.1149
     16 C14         0.3764   -8.5106    0.3162 C.3       1 <0>        -0.1015
     17 C15         0.3447   -8.9383    1.7848 C.3       1 <0>        -0.0067
     18 N2          0.4216  -10.4029    1.8701 N.4       1 <0>        -0.5057
     19 C16         0.3911  -10.8136    3.2802 C.3       1 <0>        -0.0424
     20 C17         0.4712  -12.3389    3.3689 C.3       1 <0>         0.1417
     21 H1          1.3991  -12.6813    2.9107 H         1 <0>         0.1343
     22 C18         0.4400  -12.7602    4.8155 C.ar      1 <0>        -0.2019
     23 C19         1.6208  -12.9859    5.5067 C.ar      1 <0>        -0.0548
     24 C20         1.5438  -13.3721    6.8359 C.ar      1 <0>        -0.1635
     25 C21         0.3014  -13.5183    7.4239 C.ar      1 <0>         0.1235
     26 N3         -0.8010  -13.2955    6.7356 N.ar      1 <0>        -0.4746
     27 C22        -0.7655  -12.9210    5.4715 C.ar      1 <0>         0.1169
     28 O2         -0.6408  -12.9151    2.6809 O.3       1 <0>        -0.5454
     29 C23        -3.1211    2.0871    1.8566 C.cat     1 <0>         0.3656
     30 N4         -4.1062    1.5368    2.5650 N.pl3     1 <0>        -0.4864
     31 H2         -4.2209    0.5896    2.7399 H         1 <0>         0.4645
     32 C24        -4.9155    2.5243    2.9968 C.2       1 <0>         0.0255
     33 C25        -4.4123    3.6913    2.5426 C.2       1 <0>         0.0272
     34 N5         -3.2964    3.4078    1.8417 N.pl3     1 <0>        -0.4852
     35 H3          0.8467    1.9266   -0.5148 H         1 <0>         0.1585
     36 H4         -0.9908    3.1388    0.5776 H         1 <0>         0.1424
     37 H5         -2.7980   -0.5868    1.6844 H         1 <0>         0.1468
     38 H6          0.8834   -0.5301   -0.5123 H         1 <0>         0.1463
     39 H7          0.7575   -2.3621   -0.5020 H         1 <0>         0.4160
     40 H8          2.2946   -4.2904    0.1566 H         1 <0>         0.1344
     41 H9          2.4179   -6.7442    0.3000 H         1 <0>         0.1328
     42 H10        -1.8383   -6.9769    0.1398 H         1 <0>         0.1311
     43 H11        -1.9730   -4.5231    0.0063 H         1 <0>         0.1444
     44 H12        -0.4718   -8.9501   -0.2087 H         1 <0>         0.0987
     45 H13         1.3043   -8.8530   -0.1420 H         1 <0>         0.0989
     46 H14         1.1929   -8.4988    2.3097 H         1 <0>         0.1333
     47 H15        -0.5831   -8.5959    2.2430 H         1 <0>         0.1328
     48 H16        -0.3636  -10.8097    1.3842 H         1 <0>         0.4333
     49 H17         1.2394  -10.3740    3.8050 H         1 <0>         0.1445
     50 H18        -0.5367  -10.4711    3.7384 H         1 <0>         0.1374
     51 H19         2.5777  -12.8640    5.0210 H         1 <0>         0.1412
     52 H20         2.4431  -13.5567    7.4047 H         1 <0>         0.1479
     53 H21         0.2328  -13.8189    8.4589 H         1 <0>         0.1679
     54 H22        -1.6895  -12.7425    4.9416 H         1 <0>         0.1526
     55 H23        -1.5014  -12.6534    3.0358 H         1 <0>         0.3898
     56 H24        -5.8052    2.4037    3.5970 H         1 <0>         0.2319
     57 H25        -4.8259    4.6742    2.7135 H         1 <0>         0.2326
     58 H26         1.2805  -10.7198    1.4459 H         1 <0>         0.4305
     59 H27        -2.7220    4.0531    1.4007 H         1 <0>         0.4648
@<TRIPOS>BOND
     1    1    6 ar
     2    1    2 ar
     3    1   35 1
     4    2    3 ar
     5    2   36 1
     6    3    4 ar
     7    3   29 1
     8    4    5 ar
     9    4   37 1
    10    5    6 ar
    11    5    7 1
    12    6   38 1
    13    7    8 2
    14    7    9 am
    15    9   10 1
    16    9   39 1
    17   10   15 ar
    18   10   11 ar
    19   11   12 ar
    20   11   40 1
    21   12   13 ar
    22   12   41 1
    23   13   14 ar
    24   13   16 1
    25   14   15 ar
    26   14   42 1
    27   15   43 1
    28   16   17 1
    29   16   44 1
    30   16   45 1
    31   17   18 1
    32   17   46 1
    33   17   47 1
    34   18   19 1
    35   18   48 1
    36   18   58 1
    37   19   20 1
    38   19   49 1
    39   19   50 1
    40   20   21 1
    41   20   22 1
    42   20   28 1
    43   22   27 ar
    44   22   23 ar
    45   23   24 ar
    46   23   51 1
    47   24   25 ar
    48   24   52 1
    49   25   26 ar
    50   25   53 1
    51   26   27 ar
    52   27   54 1
    53   28   55 1
    54   29   34 2
    55   29   30 1
    56   30   31 1
    57   30   32 1
    58   32   33 2
    59   32   56 1
    60   33   34 1
    61   33   57 1
    62   34   59 1
@<TRIPOS>MOLECULE
CHEMBL483202
   73    74     0     0     0
SMALL
USER_CHARGES

@<TRIPOS>ATOM
      1 C1         -0.0167    1.3779    0.0096 C.ar      1 <0>        -0.1357
      2 C2          1.1711    2.0854    0.0021 C.ar      1 <0>        -0.0573
      3 C3          2.3773    1.4107   -0.0130 C.ar      1 <0>        -0.1032
      4 C4          2.3960    0.0283   -0.0201 C.ar      1 <0>        -0.0179
      5 C5          1.2086   -0.6790   -0.0117 C.ar      1 <0>        -0.6713
      6 C6          0.0021   -0.0041    0.0020 C.ar      1 <0>        -0.0224
      7 S1          1.2325   -2.4408   -0.0219 S.o2      1 <0>         2.7001
      8 O1         -0.0129   -2.8607   -0.5621 O.2       1 <0>        -0.9606
      9 O2          2.4774   -2.8268   -0.5880 O.2       1 <0>        -0.9624
     10 N1          1.2558   -2.9393    1.5571 N.pl3     1 <0>        -1.2498
     11 C7          3.6720    2.1819   -0.0222 C.3       1 <0>        -0.0840
     12 C8          4.1244    2.4362    1.4171 C.3       1 <0>        -0.1141
     13 C9          5.4389    3.2191    1.4077 C.3       1 <0>        -0.1185
     14 C10         5.8913    3.4734    2.8470 C.3       1 <0>        -0.1189
     15 C11         7.2057    4.2564    2.8376 C.3       1 <0>         0.0625
     16 O3          7.6283    4.4938    4.1819 O.3       1 <0>        -0.3902
     17 C12         8.8533    5.2223    4.2860 C.3       1 <0>         0.0604
     18 C13         9.2069    5.4173    5.7618 C.3       1 <0>        -0.1205
     19 C14        10.5184    6.1972    5.8732 C.3       1 <0>        -0.1152
     20 C15        10.8720    6.3922    7.3490 C.3       1 <0>        -0.1489
     21 C16        12.1835    7.1722    7.4605 C.3       1 <0>        -0.0102
     22 N2         12.5230    7.3594    8.8774 N.4       1 <0>        -0.5056
     23 C17        13.7822    8.1082    8.9844 C.3       1 <0>        -0.0426
     24 C18        14.1358    8.3032   10.4602 C.3       1 <0>         0.1377
     25 H1         14.2499    7.3302   10.9381 H         1 <0>         0.1327
     26 C19        15.4276    9.0714   10.5700 C.ar      1 <0>        -0.1555
     27 C20        15.4140   10.4537   10.5326 C.ar      1 <0>        -0.0897
     28 C21        16.5967   11.1602   10.6326 C.ar      1 <0>        -0.1375
     29 C22        17.7991   10.4817   10.7711 C.ar      1 <0>         0.1337
     30 C23        17.8100    9.0951   10.8087 C.ar      1 <0>        -0.1102
     31 C24        16.6237    8.3933   10.7135 C.ar      1 <0>        -0.0623
     32 C25        19.1142    8.3551   10.9590 C.3       1 <0>         0.1174
     33 O4         18.8647    6.9480   10.9711 O.3       1 <0>        -0.5757
     34 O5         18.9641   11.1744   10.8692 O.3       1 <0>        -0.4942
     35 O6         13.0914    9.0324   11.1079 O.3       1 <0>        -0.5479
     36 H2         -0.9591    1.9051    0.0259 H         1 <0>         0.1362
     37 H3          1.1565    3.1653    0.0076 H         1 <0>         0.1318
     38 H4          3.3385   -0.4989   -0.0326 H         1 <0>         0.1420
     39 H5         -0.9258   -0.5567    0.0079 H         1 <0>         0.1440
     40 H6          1.2543   -2.2843    2.2726 H         1 <0>         0.4162
     41 H7          1.2708   -3.8863    1.7666 H         1 <0>         0.4222
     42 H8          4.4344    1.6057   -0.5463 H         1 <0>         0.0786
     43 H9          3.5236    3.1349   -0.5302 H         1 <0>         0.0775
     44 H10         3.3620    3.0125    1.9412 H         1 <0>         0.0663
     45 H11         4.2727    1.4832    1.9250 H         1 <0>         0.0668
     46 H12         6.2013    2.6429    0.8836 H         1 <0>         0.0671
     47 H13         5.2905    4.1721    0.8997 H         1 <0>         0.0661
     48 H14         5.1289    4.0497    3.3711 H         1 <0>         0.0712
     49 H15         6.0396    2.5205    3.3549 H         1 <0>         0.0718
     50 H16         7.9682    3.6801    2.3135 H         1 <0>         0.0505
     51 H17         7.0574    5.2093    2.3297 H         1 <0>         0.0500
     52 H18         9.6499    4.6661    3.7920 H         1 <0>         0.0497
     53 H19         8.7391    6.1953    3.8081 H         1 <0>         0.0494
     54 H20         8.4102    5.9735    6.2558 H         1 <0>         0.0756
     55 H21         9.3210    4.4443    6.2397 H         1 <0>         0.0758
     56 H22        11.3150    5.6410    5.3792 H         1 <0>         0.0767
     57 H23        10.4042    7.1702    5.3953 H         1 <0>         0.0763
     58 H24        10.0753    6.9485    7.8431 H         1 <0>         0.0900
     59 H25        10.9861    5.4192    7.8269 H         1 <0>         0.0902
     60 H26        12.9801    6.6159    6.9664 H         1 <0>         0.1327
     61 H27        12.0694    8.1451    6.9826 H         1 <0>         0.1317
     62 H28        11.7856    7.8743    9.3347 H         1 <0>         0.4318
     63 H29        14.5789    7.5520    8.4904 H         1 <0>         0.1450
     64 H30        13.6681    9.0812    8.5065 H         1 <0>         0.1366
     65 H31        14.4778   10.9814   10.4248 H         1 <0>         0.1275
     66 H32        16.5856   12.2397   10.6027 H         1 <0>         0.1403
     67 H33        16.6313    7.3138   10.7469 H         1 <0>         0.1419
     68 H34        19.7697    8.6007   10.1235 H         1 <0>         0.0706
     69 H35        19.5922    8.6474   11.8939 H         1 <0>         0.0654
     70 H36        19.6615    6.4082   11.0652 H         1 <0>         0.3932
     71 H37        19.2134   11.3984   11.7763 H         1 <0>         0.4012
     72 H38        12.9341    9.9102   10.7338 H         1 <0>         0.3878
     73 H39        12.6286    6.4587    9.3198 H         1 <0>         0.4298
@<TRIPOS>BOND
     1    1    6 ar
     2    1    2 ar
     3    1   36 1
     4    2    3 ar
     5    2   37 1
     6    3    4 ar
     7    3   11 1
     8    4    5 ar
     9    4   38 1
    10    5    6 ar
    11    5    7 1
    12    6   39 1
    13    7    8 2
    14    7    9 2
    15    7   10 1
    16   10   40 1
    17   10   41 1
    18   11   12 1
    19   11   42 1
    20   11   43 1
    21   12   13 1
    22   12   44 1
    23   12   45 1
    24   13   14 1
    25   13   46 1
    26   13   47 1
    27   14   15 1
    28   14   48 1
    29   14   49 1
    30   15   16 1
    31   15   50 1
    32   15   51 1
    33   16   17 1
    34   17   18 1
    35   17   52 1
    36   17   53 1
    37   18   19 1
    38   18   54 1
    39   18   55 1
    40   19   20 1
    41   19   56 1
    42   19   57 1
    43   20   21 1
    44   20   58 1
    45   20   59 1
    46   21   22 1
    47   21   60 1
    48   21   61 1
    49   22   23 1
    50   22   62 1
    51   22   73 1
    52   23   24 1
    53   23   63 1
    54   23   64 1
    55   24   25 1
    56   24   26 1
    57   24   35 1
    58   26   31 ar
    59   26   27 ar
    60   27   28 ar
    61   27   65 1
    62   28   29 ar
    63   28   66 1
    64   29   30 ar
    65   29   34 1
    66   30   31 ar
    67   30   32 1
    68   31   67 1
    69   32   33 1
    70   32   68 1
    71   32   69 1
    72   33   70 1
    73   34   71 1
    74   35   72 1
@<TRIPOS>MOLECULE
CHEMBL485847
   73    74     0     0     0
SMALL
USER_CHARGES

@<TRIPOS>ATOM
      1 C1         -0.0167    1.3779    0.0096 C.ar      1 <0>        -0.1358
      2 C2          1.1711    2.0854    0.0021 C.ar      1 <0>        -0.0566
      3 C3          2.3773    1.4107   -0.0130 C.ar      1 <0>        -0.1031
      4 C4          2.3960    0.0283   -0.0201 C.ar      1 <0>        -0.0197
      5 C5          1.2086   -0.6790   -0.0117 C.ar      1 <0>        -0.6731
      6 C6          0.0021   -0.0041    0.0020 C.ar      1 <0>        -0.0190
      7 S1          1.2325   -2.4408   -0.0219 S.o2      1 <0>         2.7007
      8 O1         -0.0129   -2.8607   -0.5621 O.2       1 <0>        -0.9599
      9 O2          2.4774   -2.8268   -0.5880 O.2       1 <0>        -0.9597
     10 N1          1.2558   -2.9393    1.5571 N.pl3     1 <0>        -1.2477
     11 C7          3.6720    2.1819   -0.0222 C.3       1 <0>        -0.0805
     12 C8          4.1244    2.4362    1.4171 C.3       1 <0>        -0.1141
     13 C9          5.4389    3.2191    1.4077 C.3       1 <0>         0.0620
     14 O3          5.8614    3.4566    2.7520 O.3       1 <0>        -0.3900
     15 C10         7.0864    4.1851    2.8561 C.3       1 <0>         0.0612
     16 C11         7.4400    4.3801    4.3318 C.3       1 <0>        -0.1199
     17 C12         8.7515    5.1600    4.4433 C.3       1 <0>        -0.1188
     18 C13         9.1051    5.3550    5.9191 C.3       1 <0>        -0.1201
     19 C14        10.4166    6.1350    6.0305 C.3       1 <0>        -0.1181
     20 C15        10.7702    6.3299    7.5063 C.3       1 <0>        -0.1503
     21 C16        12.0817    7.1099    7.6178 C.3       1 <0>        -0.0104
     22 N2         12.4212    7.2971    9.0347 N.4       1 <0>        -0.5057
     23 C17        13.6805    8.0460    9.1417 C.3       1 <0>        -0.0425
     24 C18        14.0340    8.2409   10.6175 C.3       1 <0>         0.1377
     25 H1         14.1482    7.2680   11.0954 H         1 <0>         0.1326
     26 C19        15.3259    9.0092   10.7273 C.ar      1 <0>        -0.1555
     27 C20        15.3122   10.3915   10.6899 C.ar      1 <0>        -0.0898
     28 C21        16.4949   11.0979   10.7899 C.ar      1 <0>        -0.1374
     29 C22        17.6973   10.4194   10.9284 C.ar      1 <0>         0.1336
     30 C23        17.7083    9.0329   10.9660 C.ar      1 <0>        -0.1102
     31 C24        16.5219    8.3310   10.8708 C.ar      1 <0>        -0.0623
     32 C25        19.0124    8.2928   11.1163 C.3       1 <0>         0.1174
     33 O4         18.7630    6.8858   11.1284 O.3       1 <0>        -0.5757
     34 O5         18.8624   11.1122   11.0265 O.3       1 <0>        -0.4942
     35 O6         12.9896    8.9702   11.2652 O.3       1 <0>        -0.5479
     36 H2         -0.9591    1.9051    0.0259 H         1 <0>         0.1364
     37 H3          1.1565    3.1653    0.0076 H         1 <0>         0.1321
     38 H4          3.3385   -0.4989   -0.0326 H         1 <0>         0.1420
     39 H5         -0.9258   -0.5567    0.0079 H         1 <0>         0.1438
     40 H6          0.8498   -3.7847    1.8049 H         1 <0>         0.4230
     41 H7          1.6754   -2.3859    2.2343 H         1 <0>         0.4166
     42 H8          4.4344    1.6057   -0.5463 H         1 <0>         0.0807
     43 H9          3.5236    3.1349   -0.5302 H         1 <0>         0.0796
     44 H10         3.3620    3.0125    1.9412 H         1 <0>         0.0737
     45 H11         4.2727    1.4832    1.9250 H         1 <0>         0.0741
     46 H12         6.2013    2.6429    0.8836 H         1 <0>         0.0517
     47 H13         5.2905    4.1721    0.8997 H         1 <0>         0.0507
     48 H14         7.8830    3.6288    2.3620 H         1 <0>         0.0488
     49 H15         6.9723    5.1581    2.3782 H         1 <0>         0.0483
     50 H16         6.6433    4.9363    4.8259 H         1 <0>         0.0715
     51 H17         7.5541    3.4071    4.8097 H         1 <0>         0.0718
     52 H18         9.5481    4.6038    3.9493 H         1 <0>         0.0665
     53 H19         8.6374    6.1330    3.9654 H         1 <0>         0.0662
     54 H20         8.3084    5.9112    6.4131 H         1 <0>         0.0682
     55 H21         9.2192    4.3820    6.3970 H         1 <0>         0.0684
     56 H22        11.2132    5.5787    5.5365 H         1 <0>         0.0745
     57 H23        10.3025    7.1079    5.5526 H         1 <0>         0.0741
     58 H24         9.9736    6.8862    8.0004 H         1 <0>         0.0882
     59 H25        10.8843    5.3570    7.9842 H         1 <0>         0.0885
     60 H26        12.8784    6.5537    7.1237 H         1 <0>         0.1321
     61 H27        11.9676    8.0829    7.1399 H         1 <0>         0.1311
     62 H28        11.6838    7.8120    9.4920 H         1 <0>         0.4315
     63 H29        14.4771    7.4897    8.6477 H         1 <0>         0.1448
     64 H30        13.5663    9.0189    8.6638 H         1 <0>         0.1364
     65 H31        14.3761   10.9191   10.5821 H         1 <0>         0.1275
     66 H32        16.4838   12.1774   10.7600 H         1 <0>         0.1403
     67 H33        16.5295    7.2515   10.9042 H         1 <0>         0.1419
     68 H34        19.6679    8.5384   10.2808 H         1 <0>         0.0706
     69 H35        19.4904    8.5851   12.0512 H         1 <0>         0.0654
     70 H36        19.5597    6.3459   11.2225 H         1 <0>         0.3933
     71 H37        19.1116   11.3361   11.9336 H         1 <0>         0.4012
     72 H38        12.8323    9.8479   10.8911 H         1 <0>         0.3878
     73 H39        12.5269    6.3964    9.4771 H         1 <0>         0.4295
@<TRIPOS>BOND
     1    1    6 ar
     2    1    2 ar
     3    1   36 1
     4    2    3 ar
     5    2   37 1
     6    3    4 ar
     7    3   11 1
     8    4    5 ar
     9    4   38 1
    10    5    6 ar
    11    5    7 1
    12    6   39 1
    13    7    8 2
    14    7    9 2
    15    7   10 1
    16   10   40 1
    17   10   41 1
    18   11   12 1
    19   11   42 1
    20   11   43 1
    21   12   13 1
    22   12   44 1
    23   12   45 1
    24   13   14 1
    25   13   46 1
    26   13   47 1
    27   14   15 1
    28   15   16 1
    29   15   48 1
    30   15   49 1
    31   16   17 1
    32   16   50 1
    33   16   51 1
    34   17   18 1
    35   17   52 1
    36   17   53 1
    37   18   19 1
    38   18   54 1
    39   18   55 1
    40   19   20 1
    41   19   56 1
    42   19   57 1
    43   20   21 1
    44   20   58 1
    45   20   59 1
    46   21   22 1
    47   21   60 1
    48   21   61 1
    49   22   23 1
    50   22   62 1
    51   22   73 1
    52   23   24 1
    53   23   63 1
    54   23   64 1
    55   24   25 1
    56   24   26 1
    57   24   35 1
    58   26   31 ar
    59   26   27 ar
    60   27   28 ar
    61   27   65 1
    62   28   29 ar
    63   28   66 1
    64   29   30 ar
    65   29   34 1
    66   30   31 ar
    67   30   32 1
    68   31   67 1
    69   32   33 1
    70   32   68 1
    71   32   69 1
    72   33   70 1
    73   34   71 1
    74   35   72 1
@<TRIPOS>MOLECULE
CHEMBL456485
   84    86     0     0     0
SMALL
USER_CHARGES

@<TRIPOS>ATOM
      1 C1         -0.0167    1.3779    0.0096 C.ar      1 <0>        -0.1338
      2 C2          1.1711    2.0854    0.0021 C.ar      1 <0>        -0.0601
      3 C3          2.3773    1.4107   -0.0130 C.ar      1 <0>        -0.1015
      4 C4          2.3960    0.0283   -0.0201 C.ar      1 <0>        -0.0196
      5 C5          1.2086   -0.6790   -0.0117 C.ar      1 <0>        -0.6743
      6 C6          0.0021   -0.0041    0.0020 C.ar      1 <0>        -0.0245
      7 S1          1.2325   -2.4408   -0.0219 S.o2      1 <0>         2.6893
      8 O1         -0.0129   -2.8607   -0.5621 O.2       1 <0>        -0.9483
      9 O2          2.4774   -2.8268   -0.5880 O.2       1 <0>        -0.9499
     10 N1          1.2558   -2.9393    1.5571 N.pl3     1 <0>        -1.0003
     11 C7          2.5277   -3.1442    2.2681 C.3       1 <0>         0.0851
     12 C8          2.4645   -2.3877    3.5999 C.3       1 <0>         0.0475
     13 O3          1.2773   -2.7665    4.3005 O.3       1 <0>        -0.3742
     14 C9          0.0648   -2.4312    3.6215 C.3       1 <0>         0.0470
     15 C10         0.0050   -3.1845    2.2925 C.3       1 <0>         0.0844
     16 C11         3.6720    2.1819   -0.0222 C.3       1 <0>        -0.0823
     17 C12         4.1244    2.4362    1.4171 C.3       1 <0>        -0.1119
     18 C13         5.4389    3.2191    1.4077 C.3       1 <0>        -0.1196
     19 C14         5.8913    3.4734    2.8470 C.3       1 <0>         0.0630
     20 O4          7.1190    4.2047    2.8382 O.3       1 <0>        -0.3898
     21 C15         7.6312    4.4960    4.1401 C.3       1 <0>         0.0611
     22 C16         8.9404    5.2771    4.0099 C.3       1 <0>        -0.1206
     23 C17         9.4889    5.5890    5.4038 C.3       1 <0>        -0.1184
     24 C18        10.7980    6.3701    5.2736 C.3       1 <0>        -0.1169
     25 C19        11.3465    6.6820    6.6675 C.3       1 <0>        -0.1501
     26 C20        12.6557    7.4631    6.5373 C.3       1 <0>        -0.0105
     27 N2         13.1823    7.7626    7.8756 N.4       1 <0>        -0.5057
     28 C21        14.4392    8.5126    7.7506 C.3       1 <0>        -0.0426
     29 C22        14.9877    8.8245    9.1445 C.3       1 <0>         0.1378
     30 H1         15.1721    7.8928    9.6792 H         1 <0>         0.1325
     31 C23        16.2772    9.5938    9.0163 C.ar      1 <0>        -0.1555
     32 C24        16.2491   10.9686    8.8700 C.ar      1 <0>        -0.0898
     33 C25        17.4295   11.6760    8.7519 C.ar      1 <0>        -0.1374
     34 C26        18.6443   11.0061    8.7805 C.ar      1 <0>         0.1336
     35 C27        18.6698    9.6270    8.9278 C.ar      1 <0>        -0.1102
     36 C28        17.4863    8.9246    9.0508 C.ar      1 <0>        -0.0623
     37 C29        19.9873    8.8962    8.9593 C.3       1 <0>         0.1174
     38 O5         19.7515    7.4958    9.1182 O.3       1 <0>        -0.5757
     39 O6         19.8071   11.6998    8.6641 O.3       1 <0>        -0.4942
     40 O7         14.0355    9.6078    9.8668 O.3       1 <0>        -0.5480
     41 H2         -0.9591    1.9051    0.0259 H         1 <0>         0.1353
     42 H3          1.1565    3.1653    0.0076 H         1 <0>         0.1314
     43 H4          3.3385   -0.4989   -0.0326 H         1 <0>         0.1380
     44 H5         -0.9258   -0.5567    0.0079 H         1 <0>         0.1399
     45 H6          2.6757   -4.2076    2.4567 H         1 <0>         0.0873
     46 H7          3.3509   -2.7596    1.6661 H         1 <0>         0.0988
     47 H8          3.3380   -2.6373    4.2022 H         1 <0>         0.1075
     48 H9          2.4477   -1.3147    3.4086 H         1 <0>         0.0549
     49 H10        -0.7882   -2.7120    4.2393 H         1 <0>         0.1102
     50 H11         0.0392   -1.3584    3.4303 H         1 <0>         0.0556
     51 H12        -0.8416   -2.8265    1.7067 H         1 <0>         0.1007
     52 H13        -0.1053   -4.2520    2.4836 H         1 <0>         0.0876
     53 H14         4.4344    1.6057   -0.5463 H         1 <0>         0.0797
     54 H15         3.5236    3.1349   -0.5302 H         1 <0>         0.0791
     55 H16         3.3620    3.0125    1.9412 H         1 <0>         0.0667
     56 H17         4.2727    1.4832    1.9250 H         1 <0>         0.0665
     57 H18         6.2013    2.6429    0.8836 H         1 <0>         0.0739
     58 H19         5.2905    4.1721    0.8997 H         1 <0>         0.0731
     59 H20         5.1289    4.0497    3.3711 H         1 <0>         0.0491
     60 H21         6.0396    2.5205    3.3549 H         1 <0>         0.0497
     61 H22         6.9049    5.0935    4.6910 H         1 <0>         0.0481
     62 H23         7.8157    3.5643    4.6748 H         1 <0>         0.0485
     63 H24         9.6667    4.6796    3.4590 H         1 <0>         0.0734
     64 H25         8.7560    6.2088    3.4752 H         1 <0>         0.0731
     65 H26         8.7625    6.1865    5.9547 H         1 <0>         0.0687
     66 H27         9.6733    4.6573    5.9385 H         1 <0>         0.0690
     67 H28        11.5244    5.7726    4.7227 H         1 <0>         0.0762
     68 H29        10.6136    7.3018    4.7389 H         1 <0>         0.0758
     69 H30        10.6202    7.2795    7.2184 H         1 <0>         0.0883
     70 H31        11.5309    5.7503    7.2022 H         1 <0>         0.0886
     71 H32        13.3820    6.8656    5.9864 H         1 <0>         0.1326
     72 H33        12.4712    8.3948    6.0026 H         1 <0>         0.1316
     73 H34        12.5099    8.3157    8.3856 H         1 <0>         0.4315
     74 H35        15.1656    7.9151    7.1997 H         1 <0>         0.1450
     75 H36        14.2548    9.4443    7.2159 H         1 <0>         0.1366
     76 H37        15.3033   11.4897    8.8478 H         1 <0>         0.1275
     77 H38        17.4070   12.7497    8.6370 H         1 <0>         0.1403
     78 H39        17.5058    7.8513    9.1695 H         1 <0>         0.1419
     79 H40        20.5221    9.0710    8.0257 H         1 <0>         0.0707
     80 H41        20.5853    9.2610    9.7944 H         1 <0>         0.0654
     81 H42        20.5574    6.9620    9.1467 H         1 <0>         0.3933
     82 H43        20.1751   11.9951    9.5081 H         1 <0>         0.4012
     83 H44        13.8230   10.4531    9.4480 H         1 <0>         0.3878
     84 H45        13.3530    6.9001    8.3706 H         1 <0>         0.4295
@<TRIPOS>BOND
     1    1    6 ar
     2    1    2 ar
     3    1   41 1
     4    2    3 ar
     5    2   42 1
     6    3    4 ar
     7    3   16 1
     8    4    5 ar
     9    4   43 1
    10    5    6 ar
    11    5    7 1
    12    6   44 1
    13    7    8 2
    14    7    9 2
    15    7   10 1
    16   10   15 1
    17   10   11 1
    18   11   12 1
    19   11   45 1
    20   11   46 1
    21   12   13 1
    22   12   47 1
    23   12   48 1
    24   13   14 1
    25   14   15 1
    26   14   49 1
    27   14   50 1
    28   15   51 1
    29   15   52 1
    30   16   17 1
    31   16   53 1
    32   16   54 1
    33   17   18 1
    34   17   55 1
    35   17   56 1
    36   18   19 1
    37   18   57 1
    38   18   58 1
    39   19   20 1
    40   19   59 1
    41   19   60 1
    42   20   21 1
    43   21   22 1
    44   21   61 1
    45   21   62 1
    46   22   23 1
    47   22   63 1
    48   22   64 1
    49   23   24 1
    50   23   65 1
    51   23   66 1
    52   24   25 1
    53   24   67 1
    54   24   68 1
    55   25   26 1
    56   25   69 1
    57   25   70 1
    58   26   27 1
    59   26   71 1
    60   26   72 1
    61   27   28 1
    62   27   73 1
    63   27   84 1
    64   28   29 1
    65   28   74 1
    66   28   75 1
    67   29   30 1
    68   29   31 1
    69   29   40 1
    70   31   36 ar
    71   31   32 ar
    72   32   33 ar
    73   32   76 1
    74   33   34 ar
    75   33   77 1
    76   34   35 ar
    77   34   39 1
    78   35   36 ar
    79   35   37 1
    80   36   78 1
    81   37   38 1
    82   37   79 1
    83   37   80 1
    84   38   81 1
    85   39   82 1
    86   40   83 1
@<TRIPOS>MOLECULE
CHEMBL1221543
   49    50     0     0     0
SMALL
USER_CHARGES

@<TRIPOS>ATOM
      1 C1          0.5191   -1.8311   -2.9408 C.3       1 <0>        -0.1868
      2 C2         -0.3099   -0.7924   -2.1826 C.3       1 <0>        -0.0881
      3 C3         -0.3684    0.5038   -2.9933 C.3       1 <0>        -0.1669
      4 C4         -1.7280   -1.3267   -1.9720 C.3       1 <0>        -0.1420
      5 C5          0.3378   -0.5157   -0.8244 C.3       1 <0>        -0.1273
      6 C6          1.6475    0.2480   -1.0301 C.3       1 <0>         0.0587
      7 C7          1.3460    1.7360   -1.2193 C.3       1 <0>        -0.1987
      8 C8          2.5447    0.0612    0.1951 C.3       1 <0>        -0.1766
      9 N1          2.3333   -0.2680   -2.2223 N.4       1 <0>        -0.5105
     10 C9          3.6824    0.3081   -2.2991 C.3       1 <0>        -0.0603
     11 C10         4.3965   -0.2294   -3.5409 C.3       1 <0>         0.1635
     12 H1          3.8326    0.0459   -4.4321 H         1 <0>         0.1122
     13 C11         5.7805    0.3617   -3.6197 C.ar      1 <0>        -0.2314
     14 C12         6.8634   -0.3333   -3.1094 C.ar      1 <0>        -0.0380
     15 C13         8.1255    0.2284   -3.1930 C.ar      1 <0>        -0.2394
     16 C14         8.3204    1.4638   -3.7739 C.ar      1 <0>         0.3000
     17 C15         7.2359    2.1922   -4.3009 C.ar      1 <0>        -0.0293
     18 C16         5.9739    1.5910   -4.2037 C.ar      1 <0>        -0.0472
     19 S1          4.8984    2.7812   -4.9669 S.3       1 <0>        -0.1206
     20 C17         6.1362    3.9990   -5.3824 C.2       1 <0>         0.5377
     21 O1          5.9934    5.0711   -5.9409 O.2       1 <0>        -0.4762
     22 N2          7.2668    3.4370   -4.9113 N.am      1 <0>        -0.6193
     23 H2          8.1121    3.9022   -5.0109 H         1 <0>         0.4153
     24 O2          9.5745    1.9854   -3.8384 O.3       1 <0>        -0.6872
     25 O3          4.4906   -1.6528   -3.4575 O.3       1 <0>        -0.5547
     26 H3          1.2882   -1.3260   -3.5252 H         1 <0>         0.0523
     27 H4          0.9902   -2.5095   -2.2295 H         1 <0>         0.0744
     28 H5         -0.1305   -2.3978   -3.6079 H         1 <0>         0.0905
     29 H6         -1.0538    0.3775   -3.8315 H         1 <0>         0.0800
     30 H7         -0.7196    1.3154   -2.3560 H         1 <0>         0.0843
     31 H8          0.6263    0.7420   -3.3700 H         1 <0>         0.0456
     32 H9         -1.6863   -2.2502   -1.3944 H         1 <0>         0.0641
     33 H10        -2.3186   -0.5867   -1.4319 H         1 <0>         0.0644
     34 H11        -2.1894   -1.5239   -2.9396 H         1 <0>         0.0670
     35 H12        -0.3392    0.0819   -0.2140 H         1 <0>         0.1086
     36 H13         0.5432   -1.4602   -0.3206 H         1 <0>         0.0927
     37 H14         0.7005    2.0815   -0.4117 H         1 <0>         0.1012
     38 H15         2.2784    2.3003   -1.2058 H         1 <0>         0.0831
     39 H16         0.8441    1.8864   -2.1751 H         1 <0>         0.0974
     40 H17         2.8507   -0.9826    0.2657 H         1 <0>         0.0791
     41 H18         3.4276    0.6930    0.0987 H         1 <0>         0.0869
     42 H19         1.9948    0.3402    1.0940 H         1 <0>         0.1014
     43 H20         2.3997   -1.2731   -2.1635 H         1 <0>         0.4260
     44 H21         3.6106    1.3939   -2.3627 H         1 <0>         0.1395
     45 H22         4.2463    0.0328   -1.4079 H         1 <0>         0.1378
     46 H23         6.7250   -1.3016   -2.6515 H         1 <0>         0.1129
     47 H24         8.9730   -0.3104   -2.7958 H         1 <0>         0.1173
     48 H25         4.9807   -1.9702   -2.6867 H         1 <0>         0.3830
     49 H26         1.8112   -0.0132   -3.0473 H         1 <0>         0.4235
@<TRIPOS>BOND
     1    1    2 1
     2    1   26 1
     3    1   27 1
     4    1   28 1
     5    2    3 1
     6    2    4 1
     7    2    5 1
     8    3   29 1
     9    3   30 1
    10    3   31 1
    11    4   32 1
    12    4   33 1
    13    4   34 1
    14    5    6 1
    15    5   35 1
    16    5   36 1
    17    6    7 1
    18    6    8 1
    19    6    9 1
    20    7   37 1
    21    7   38 1
    22    7   39 1
    23    8   40 1
    24    8   41 1
    25    8   42 1
    26    9   10 1
    27    9   43 1
    28    9   49 1
    29   10   11 1
    30   10   44 1
    31   10   45 1
    32   11   12 1
    33   11   13 1
    34   11   25 1
    35   13   18 ar
    36   13   14 ar
    37   14   15 ar
    38   14   46 1
    39   15   16 ar
    40   15   47 1
    41   16   17 ar
    42   16   24 1
    43   17   22 1
    44   17   18 ar
    45   18   19 1
    46   19   20 1
    47   20   21 2
    48   20   22 am
    49   22   23 1
    50   25   48 1
@<TRIPOS>MOLECULE
CHEMBL56768
   56    59     0     0     0
SMALL
USER_CHARGES

@<TRIPOS>ATOM
      1 C1         -0.4378    6.6771    6.2735 C.3       1 <0>        -0.1551
      2 C2         -1.0753    5.3029    6.0586 C.3       1 <0>        -0.1256
      3 C3         -0.1628    4.2209    6.6397 C.3       1 <0>        -0.1217
      4 C4         -0.8003    2.8467    6.4248 C.3       1 <0>        -0.1183
      5 C5          0.1122    1.7648    7.0058 C.3       1 <0>        -0.1169
      6 C6         -0.5253    0.3906    6.7909 C.3       1 <0>        -0.0408
      7 C7          0.3735   -0.6751    7.3633 C.2       1 <0>         0.3214
      8 N1          0.3305   -1.1341    8.5821 N.2       1 <0>        -0.5570
      9 C8          1.2725   -2.0762    8.7527 C.2       1 <0>         0.4937
     10 N2          1.9274   -2.2227    7.6288 N.2       1 <0>        -0.3740
     11 O1          1.3476   -1.3149    6.7038 O.3       1 <0>        -0.1010
     12 N3          1.5124   -2.7784    9.9274 N.pl3     1 <0>        -0.5094
     13 C9          0.7654   -2.6061   11.1762 C.3       1 <0>         0.1221
     14 C10         1.4010   -3.5961   12.1660 C.3       1 <0>        -0.0854
     15 C11         2.4957   -4.2753   11.3742 C.ar      1 <0>        -0.1591
     16 C12         2.4970   -3.7561   10.0887 C.ar      1 <0>         0.2199
     17 C13         3.4261   -4.2376    9.1643 C.ar      1 <0>        -0.1632
     18 C14         4.3244   -5.2183    9.5280 C.ar      1 <0>         0.0223
     19 C15         4.3119   -5.7325   10.8113 C.ar      1 <0>        -0.7013
     20 C16         3.4006   -5.2545   11.7351 C.ar      1 <0>         0.0319
     21 S1          5.4608   -6.9866   11.2716 S.o2      1 <0>         2.6941
     22 O2          4.8310   -7.7640   12.2806 O.2       1 <0>        -0.9527
     23 O3          5.9464   -7.5557   10.0634 O.2       1 <0>        -0.9466
     24 N4          6.7479   -6.2317   11.9900 N.pl3     1 <0>        -1.0632
     25 C17         7.5271   -5.3323   11.2588 C.ar      1 <0>         0.1199
     26 C18         8.4308   -5.8022   10.3142 C.ar      1 <0>        -0.1043
     27 C19         9.1994   -4.9101    9.5926 C.ar      1 <0>        -0.1112
     28 C20         9.0705   -3.5505    9.8098 C.ar      1 <0>        -0.1091
     29 C21         8.1718   -3.0794   10.7493 C.ar      1 <0>        -0.1145
     30 C22         7.3960   -3.9657   11.4703 C.ar      1 <0>        -0.1107
     31 H1          0.5300    6.7109    5.7733 H         1 <0>         0.0537
     32 H2         -1.0879    7.4479    5.8595 H         1 <0>         0.0543
     33 H3         -0.3015    6.8514    7.3408 H         1 <0>         0.0535
     34 H4         -2.0431    5.2691    6.5588 H         1 <0>         0.0617
     35 H5         -1.2116    5.1285    4.9913 H         1 <0>         0.0619
     36 H6          0.8050    4.2547    6.1395 H         1 <0>         0.0631
     37 H7         -0.0265    4.3953    7.7070 H         1 <0>         0.0627
     38 H8         -1.7681    2.8129    6.9249 H         1 <0>         0.0687
     39 H9         -0.9366    2.6724    5.3575 H         1 <0>         0.0687
     40 H10         1.0800    1.7986    6.5057 H         1 <0>         0.0728
     41 H11         0.2485    1.9391    8.0731 H         1 <0>         0.0742
     42 H12        -1.4931    0.3568    7.2911 H         1 <0>         0.1163
     43 H13        -0.6616    0.2162    5.7236 H         1 <0>         0.1094
     44 H14         0.8713   -1.5849   11.5423 H         1 <0>         0.0909
     45 H15        -0.2867   -2.8468   11.0237 H         1 <0>         0.0907
     46 H16         1.8227   -3.0635   13.0185 H         1 <0>         0.1003
     47 H17         0.6639   -4.3264   12.4995 H         1 <0>         0.1011
     48 H18         3.4410   -3.8404    8.1602 H         1 <0>         0.1449
     49 H19         5.0401   -5.5863    8.8078 H         1 <0>         0.1483
     50 H20         3.3890   -5.6558   12.7377 H         1 <0>         0.1453
     51 H21         6.9606   -6.4142   12.9186 H         1 <0>         0.4256
     52 H22         8.5325   -6.8639   10.1446 H         1 <0>         0.1359
     53 H23         9.9022   -5.2747    8.8581 H         1 <0>         0.1308
     54 H24         9.6733   -2.8551    9.2446 H         1 <0>         0.1270
     55 H25         8.0736   -2.0169   10.9165 H         1 <0>         0.1269
     56 H26         6.6911   -3.5969   12.2008 H         1 <0>         0.1271
@<TRIPOS>BOND
     1    1    2 1
     2    1   31 1
     3    1   32 1
     4    1   33 1
     5    2    3 1
     6    2   34 1
     7    2   35 1
     8    3    4 1
     9    3   36 1
    10    3   37 1
    11    4    5 1
    12    4   38 1
    13    4   39 1
    14    5    6 1
    15    5   40 1
    16    5   41 1
    17    6    7 1
    18    6   42 1
    19    6   43 1
    20    7   11 1
    21    7    8 2
    22    8    9 1
    23    9   10 2
    24    9   12 1
    25   10   11 1
    26   12   16 1
    27   12   13 1
    28   13   14 1
    29   13   44 1
    30   13   45 1
    31   14   15 1
    32   14   46 1
    33   14   47 1
    34   15   20 ar
    35   15   16 ar
    36   16   17 ar
    37   17   18 ar
    38   17   48 1
    39   18   19 ar
    40   18   49 1
    41   19   20 ar
    42   19   21 1
    43   20   50 1
    44   21   22 2
    45   21   23 2
    46   21   24 1
    47   24   25 1
    48   24   51 1
    49   25   30 ar
    50   25   26 ar
    51   26   27 ar
    52   26   52 1
    53   27   28 ar
    54   27   53 1
    55   28   29 ar
    56   28   54 1
    57   29   30 ar
    58   29   55 1
    59   30   56 1
@<TRIPOS>MOLECULE
CHEMBL1085270
   65    68     0     0     0
SMALL
USER_CHARGES

@<TRIPOS>ATOM
      1 C1         -0.0187    1.5258    0.0104 C.3       1 <0>        -0.1457
      2 C2          0.0021   -0.0041    0.0020 C.3       1 <0>        -0.0505
      3 C3          0.7182   -0.4975   -1.2568 C.3       1 <0>        -0.1453
      4 C4          0.7309   -0.5033    1.2229 C.ar      1 <0>        -0.0967
      5 C5          2.0494   -0.1484    1.4343 C.ar      1 <0>        -0.0766
      6 C6          2.7188   -0.6065    2.5538 C.ar      1 <0>        -0.1434
      7 C7          2.0708   -1.4203    3.4650 C.ar      1 <0>        -0.0851
      8 C8          0.7526   -1.7775    3.2585 C.ar      1 <0>        -0.2060
      9 C9          0.0770   -1.3148    2.1383 C.ar      1 <0>         0.1175
     10 O1         -1.2216   -1.6603    1.9357 O.3       1 <0>        -0.2990
     11 C10        -1.8310   -2.4985    2.9196 C.3       1 <0>         0.0300
     12 C11        -3.2821   -2.7781    2.5234 C.3       1 <0>         0.0865
     13 C12        -3.9710   -3.5707    3.6361 C.3       1 <0>        -0.0434
     14 N1         -5.3643   -3.8391    3.2556 N.4       1 <0>        -0.3775
     15 C13        -6.0969   -2.5708    3.1601 C.3       1 <0>        -0.0109
     16 C14        -7.5269   -2.8379    2.6855 C.3       1 <0>        -0.1371
     17 C15        -8.2277   -3.7597    3.6876 C.3       1 <0>        -0.1199
     18 C16        -7.4147   -5.0492    3.8351 C.3       1 <0>        -0.1435
     19 C17        -5.9889   -4.7001    4.2671 C.3       1 <0>        -0.0037
     20 C18        -9.6313   -4.0951    3.1794 C.3       1 <0>         0.1151
     21 N2        -10.3434   -4.8779    4.1925 N.am      1 <0>        -0.5805
     22 C19       -10.3215   -6.2207    4.2710 C.2       1 <0>         0.5774
     23 O2         -9.7182   -6.9647    3.5245 O.2       1 <0>        -0.4615
     24 C20       -11.1547   -6.6390    5.4181 C.ar      1 <0>        -0.1509
     25 C21       -11.4953   -7.8629    5.9714 C.ar      1 <0>        -0.0402
     26 C22       -12.3235   -7.9084    7.0819 C.ar      1 <0>        -0.0906
     27 C23       -12.8115   -6.7419    7.6403 C.ar      1 <0>        -0.0884
     28 C24       -12.4793   -5.5104    7.0976 C.ar      1 <0>        -0.0404
     29 C25       -11.6522   -5.4496    5.9875 C.ar      1 <0>        -0.1467
     30 C26       -11.1005   -4.3484    5.1703 C.2       1 <0>         0.5754
     31 O3        -11.2991   -3.1638    5.3502 O.2       1 <0>        -0.4544
     32 O4         -3.3076   -3.5364    1.3124 O.3       1 <0>        -0.5422
     33 H1          1.0039    1.9031    0.0027 H         1 <0>         0.0582
     34 H2         -0.5459    1.8868   -0.8726 H         1 <0>         0.0607
     35 H3         -0.5289    1.8773    0.9072 H         1 <0>         0.0536
     36 H4         -1.0205   -0.3814    0.0098 H         1 <0>         0.0823
     37 H5          1.7408   -0.1202   -1.2645 H         1 <0>         0.0578
     38 H6          0.7330   -1.5874   -1.2628 H         1 <0>         0.0543
     39 H7          0.1910   -0.1364   -2.1398 H         1 <0>         0.0606
     40 H8          2.5577    0.4870    0.7242 H         1 <0>         0.1327
     41 H9          3.7496   -0.3286    2.7169 H         1 <0>         0.1287
     42 H10         2.5959   -1.7771    4.3387 H         1 <0>         0.1273
     43 H11         0.2470   -2.4131    3.9703 H         1 <0>         0.1227
     44 H12        -1.2844   -3.4393    2.9844 H         1 <0>         0.0757
     45 H13        -1.8087   -1.9979    3.8876 H         1 <0>         0.0800
     46 H14        -3.8058   -1.8341    2.3720 H         1 <0>         0.1343
     47 H15        -3.4474   -4.5146    3.7874 H         1 <0>         0.1391
     48 H16        -3.9516   -2.9922    4.5597 H         1 <0>         0.1442
     49 H17        -6.1228   -2.0921    4.1390 H         1 <0>         0.1311
     50 H18        -5.5951   -1.9146    2.4489 H         1 <0>         0.1363
     51 H19        -8.0697   -1.8951    2.6169 H         1 <0>         0.1199
     52 H20        -7.5021   -3.3164    1.7065 H         1 <0>         0.0964
     53 H21        -8.2983   -3.2608    4.6542 H         1 <0>         0.0972
     54 H22        -7.8774   -5.6870    4.5882 H         1 <0>         0.1061
     55 H23        -7.3876   -5.5736    2.8799 H         1 <0>         0.0989
     56 H24        -5.4074   -5.6160    4.3731 H         1 <0>         0.1331
     57 H25        -6.0171   -4.1761    5.2224 H         1 <0>         0.1293
     58 H26       -10.1770   -3.1721    2.9837 H         1 <0>         0.1089
     59 H27        -9.5557   -4.6747    2.2593 H         1 <0>         0.1049
     60 H28       -11.1173   -8.7776    5.5390 H         1 <0>         0.1444
     61 H29       -12.5898   -8.8619    7.5136 H         1 <0>         0.1475
     62 H30       -13.4563   -6.7903    8.5053 H         1 <0>         0.1478
     63 H31       -12.8637   -4.6023    7.5379 H         1 <0>         0.1453
     64 H32        -2.8589   -4.3908    1.3739 H         1 <0>         0.3899
     65 H33        -5.3837   -4.3047    2.3607 H         1 <0>         0.4288
@<TRIPOS>BOND
     1    1    2 1
     2    1   33 1
     3    1   34 1
     4    1   35 1
     5    2    3 1
     6    2    4 1
     7    2   36 1
     8    3   37 1
     9    3   38 1
    10    3   39 1
    11    4    9 ar
    12    4    5 ar
    13    5    6 ar
    14    5   40 1
    15    6    7 ar
    16    6   41 1
    17    7    8 ar
    18    7   42 1
    19    8    9 ar
    20    8   43 1
    21    9   10 1
    22   10   11 1
    23   11   12 1
    24   11   44 1
    25   11   45 1
    26   12   13 1
    27   12   32 1
    28   12   46 1
    29   13   14 1
    30   13   47 1
    31   13   48 1
    32   14   19 1
    33   14   15 1
    34   14   65 1
    35   15   16 1
    36   15   49 1
    37   15   50 1
    38   16   17 1
    39   16   51 1
    40   16   52 1
    41   17   18 1
    42   17   20 1
    43   17   53 1
    44   18   19 1
    45   18   54 1
    46   18   55 1
    47   19   56 1
    48   19   57 1
    49   20   21 1
    50   20   58 1
    51   20   59 1
    52   21   30 am
    53   21   22 am
    54   22   23 2
    55   22   24 1
    56   24   29 ar
    57   24   25 ar
    58   25   26 ar
    59   25   60 1
    60   26   27 ar
    61   26   61 1
    62   27   28 ar
    63   27   62 1
    64   28   29 ar
    65   28   63 1
    66   29   30 1
    67   30   31 2
    68   32   64 1
@<TRIPOS>MOLECULE
CHEMBL1085270
   65    68     0     0     0
SMALL
USER_CHARGES

@<TRIPOS>ATOM
      1 C1          1.6855   -8.6642    2.9675 C.3       1 <0>        -0.1453
      2 C2          0.7839   -8.1839    4.1064 C.3       1 <0>        -0.0507
      3 C3          0.8242   -9.1982    5.2512 C.3       1 <0>        -0.1455
      4 C4          1.2706   -6.8468    4.6026 C.ar      1 <0>        -0.0967
      5 C5          2.5502   -6.7210    5.1084 C.ar      1 <0>        -0.0766
      6 C6          2.9971   -5.4948    5.5643 C.ar      1 <0>        -0.1434
      7 C7          2.1653   -4.3911    5.5149 C.ar      1 <0>        -0.0851
      8 C8          0.8854   -4.5115    5.0098 C.ar      1 <0>        -0.2060
      9 C9          0.4363   -5.7400    4.5468 C.ar      1 <0>         0.1175
     10 O1         -0.8207   -5.8599    4.0441 O.3       1 <0>        -0.2990
     11 C10        -1.6240   -4.6784    4.0174 C.3       1 <0>         0.0303
     12 C11        -2.9949   -5.0071    3.4228 C.3       1 <0>         0.0860
     13 C12        -3.8969   -3.7743    3.5085 C.3       1 <0>        -0.0431
     14 N1         -5.2179   -4.0944    2.9513 N.4       1 <0>        -0.3779
     15 C13        -6.0311   -2.8739    2.8920 C.3       1 <0>        -0.0041
     16 C14        -7.3788   -3.1856    2.2377 C.3       1 <0>        -0.1385
     17 C15        -8.1085   -4.2474    3.0656 C.3       1 <0>        -0.1202
     18 C16        -7.2195   -5.4888    3.1833 C.3       1 <0>        -0.1419
     19 C17        -5.8778   -5.0917    3.8026 C.3       1 <0>        -0.0100
     20 C18        -9.4213   -4.6218    2.3747 C.3       1 <0>         0.1154
     21 N2        -10.1740   -5.5474    3.2250 N.am      1 <0>        -0.5805
     22 C19       -10.0580   -6.8869    3.1811 C.2       1 <0>         0.5768
     23 O2         -9.3246   -7.5110    2.4412 O.2       1 <0>        -0.4600
     24 C20       -10.9727   -7.4720    4.1841 C.ar      1 <0>        -0.1505
     25 C21       -11.2751   -8.7649    4.5803 C.ar      1 <0>        -0.0401
     26 C22       -12.2095   -8.9758    5.5821 C.ar      1 <0>        -0.0903
     27 C23       -12.8410   -7.9057    6.1879 C.ar      1 <0>        -0.0886
     28 C24       -12.5486   -6.6070    5.8019 C.ar      1 <0>        -0.0405
     29 C25       -11.6166   -6.3809    4.8017 C.ar      1 <0>        -0.1471
     30 C26       -11.0678   -5.1694    4.1566 C.2       1 <0>         0.5758
     31 O3        -11.3741   -4.0245    4.4219 O.2       1 <0>        -0.4552
     32 O4         -2.8412   -5.3908    2.0549 O.3       1 <0>        -0.5415
     33 H1          2.7086   -8.7619    3.3305 H         1 <0>         0.0578
     34 H2          1.3335   -9.6314    2.6086 H         1 <0>         0.0607
     35 H3          1.6568   -7.9416    2.1519 H         1 <0>         0.0543
     36 H4         -0.2393   -8.0863    3.7434 H         1 <0>         0.0823
     37 H5          1.8473   -9.2959    5.6142 H         1 <0>         0.0582
     38 H6          0.1818   -8.8560    6.0626 H         1 <0>         0.0535
     39 H7          0.4721  -10.1653    4.8923 H         1 <0>         0.0607
     40 H8          3.2017   -7.5815    5.1480 H         1 <0>         0.1327
     41 H9          3.9974   -5.3987    5.9599 H         1 <0>         0.1287
     42 H10         2.5166   -3.4343    5.8719 H         1 <0>         0.1273
     43 H11         0.2362   -3.6493    4.9714 H         1 <0>         0.1227
     44 H12        -1.7492   -4.3011    5.0323 H         1 <0>         0.0798
     45 H13        -1.1350   -3.9202    3.4057 H         1 <0>         0.0759
     46 H14        -3.4462   -5.8270    3.9817 H         1 <0>         0.1334
     47 H15        -4.0051   -3.4750    4.5510 H         1 <0>         0.1440
     48 H16        -3.4512   -2.9578    2.9404 H         1 <0>         0.1399
     49 H17        -6.1962   -2.4984    3.9019 H         1 <0>         0.1309
     50 H18        -5.5090   -2.1181    2.3052 H         1 <0>         0.1350
     51 H19        -7.9818   -2.2786    2.1963 H         1 <0>         0.1201
     52 H20        -7.2149   -3.5610    1.2276 H         1 <0>         0.0956
     53 H21        -8.3181   -3.8536    4.0602 H         1 <0>         0.0972
     54 H22        -7.7087   -6.2279    3.8178 H         1 <0>         0.1058
     55 H23        -7.0523   -5.9119    2.1928 H         1 <0>         0.0995
     56 H24        -5.2424   -5.9732    3.8880 H         1 <0>         0.1340
     57 H25        -6.0461   -4.6689    4.7930 H         1 <0>         0.1295
     58 H26       -10.0123   -3.7218    2.2052 H         1 <0>         0.1085
     59 H27        -9.2055   -5.1000    1.4193 H         1 <0>         0.1048
     60 H28       -10.7850   -9.6047    4.1102 H         1 <0>         0.1446
     61 H29       -12.4460   -9.9832    5.8913 H         1 <0>         0.1475
     62 H30       -13.5675   -8.0829    6.9671 H         1 <0>         0.1477
     63 H31       -13.0454   -5.7748    6.2784 H         1 <0>         0.1451
     64 H32        -2.4446   -4.7078    1.4970 H         1 <0>         0.3896
     65 H33        -5.1077   -4.4682    2.0206 H         1 <0>         0.4289
@<TRIPOS>BOND
     1    1    2 1
     2    1   33 1
     3    1   34 1
     4    1   35 1
     5    2    3 1
     6    2    4 1
     7    2   36 1
     8    3   37 1
     9    3   38 1
    10    3   39 1
    11    4    9 ar
    12    4    5 ar
    13    5    6 ar
    14    5   40 1
    15    6    7 ar
    16    6   41 1
    17    7    8 ar
    18    7   42 1
    19    8    9 ar
    20    8   43 1
    21    9   10 1
    22   10   11 1
    23   11   12 1
    24   11   44 1
    25   11   45 1
    26   12   13 1
    27   12   32 1
    28   12   46 1
    29   13   14 1
    30   13   47 1
    31   13   48 1
    32   14   19 1
    33   14   15 1
    34   14   65 1
    35   15   16 1
    36   15   49 1
    37   15   50 1
    38   16   17 1
    39   16   51 1
    40   16   52 1
    41   17   18 1
    42   17   20 1
    43   17   53 1
    44   18   19 1
    45   18   54 1
    46   18   55 1
    47   19   56 1
    48   19   57 1
    49   20   21 1
    50   20   58 1
    51   20   59 1
    52   21   30 am
    53   21   22 am
    54   22   23 2
    55   22   24 1
    56   24   29 ar
    57   24   25 ar
    58   25   26 ar
    59   25   60 1
    60   26   27 ar
    61   26   61 1
    62   27   28 ar
    63   27   62 1
    64   28   29 ar
    65   28   63 1
    66   29   30 1
    67   30   31 2
    68   32   64 1
@<TRIPOS>MOLECULE
CHEMBL286435
   71    75     0     0     0
SMALL
USER_CHARGES

@<TRIPOS>ATOM
      1 C1          0.1334    1.3200    0.1499 C.ar      1 <0>        -0.1637
      2 C2          1.3055    2.0601    0.1103 C.ar      1 <0>        -0.0542
      3 C3          2.5146    1.3820    0.1179 C.ar      1 <0>        -0.2004
      4 C4          2.5118    0.0005    0.1643 C.ar      1 <0>         0.1172
      5 N1          1.3775   -0.6708    0.2007 N.ar      1 <0>        -0.4748
      6 C5          0.2091   -0.0590    0.1952 C.ar      1 <0>         0.1220
      7 C6          3.8156    2.1414    0.0756 C.3       1 <0>         0.1414
      8 H1          3.6649    3.1430    0.4781 H         1 <0>         0.1342
      9 C7          4.3010    2.2412   -1.3719 C.3       1 <0>        -0.0428
     10 N2          5.5692    2.9814   -1.4132 N.4       1 <0>        -0.5057
     11 C8          6.0353    3.0772   -2.8030 C.3       1 <0>        -0.0087
     12 C9          7.3561    3.8482   -2.8459 C.3       1 <0>        -0.1001
     13 C10         7.8342    3.9465   -4.2717 C.ar      1 <0>        -0.1177
     14 C11         8.6522    2.9616   -4.7944 C.ar      1 <0>        -0.0887
     15 C12         9.0922    3.0486   -6.1006 C.ar      1 <0>        -0.1244
     16 C13         8.7122    4.1269   -6.8895 C.ar      1 <0>         0.1623
     17 C14         7.8904    5.1145   -6.3613 C.ar      1 <0>        -0.1485
     18 C15         7.4494    5.0184   -5.0560 C.ar      1 <0>        -0.0827
     19 N3          9.1557    4.2182   -8.2108 N.pl3     1 <0>        -1.0581
     20 S1          8.0883    4.6000   -9.4180 S.o2      1 <0>         2.6876
     21 O1          7.4211    5.7864   -9.0100 O.2       1 <0>        -0.9391
     22 O2          8.8088    4.5128  -10.6397 O.2       1 <0>        -0.9339
     23 C16         6.8712    3.3266   -9.4592 C.ar      1 <0>        -0.6570
     24 C17         7.1126    2.1653  -10.1708 C.ar      1 <0>        -0.0156
     25 C18         6.1627    1.1646  -10.2065 C.ar      1 <0>        -0.0953
     26 C19         4.9589    1.3258   -9.5239 C.ar      1 <0>         0.0246
     27 C20         4.7209    2.4975   -8.8086 C.ar      1 <0>        -0.0878
     28 C21         5.6801    3.4894   -8.7751 C.ar      1 <0>        -0.0221
     29 C22         3.9334    0.2534   -9.5589 C.2       1 <0>         0.2816
     30 N4          2.7357    0.2928   -8.9481 N.2       1 <0>        -0.5110
     31 C23         2.0799   -0.8082   -9.1809 C.2       1 <0>         0.2995
     32 O3          2.8368   -1.5980   -9.9534 O.3       1 <0>        -0.0782
     33 N5          4.0418   -0.8870  -10.1947 N.2       1 <0>        -0.3059
     34 C24         0.7022   -1.1380   -8.6669 C.3       1 <0>         0.1460
     35 O4         -0.2769   -0.6858   -9.6045 O.3       1 <0>        -0.3029
     36 C25        -1.5809   -0.9072   -9.2902 C.ar      1 <0>         0.1152
     37 C26        -1.9104   -1.5413   -8.1014 C.ar      1 <0>        -0.1789
     38 C27        -3.2359   -1.7657   -7.7833 C.ar      1 <0>        -0.1121
     39 C28        -4.2352   -1.3584   -8.6508 C.ar      1 <0>         0.0715
     40 C29        -3.9077   -0.7258   -9.8380 C.ar      1 <0>        -0.1097
     41 C30        -2.5832   -0.4942  -10.1555 C.ar      1 <0>        -0.1116
     42 F1         -5.5311   -1.5788   -8.3387 F         1 <0>        -0.1352
     43 O5          4.7934    1.4551    0.8597 O.3       1 <0>        -0.5457
     44 H2         -0.8263    1.8152    0.1497 H         1 <0>         0.1473
     45 H3          1.2770    3.1391    0.0741 H         1 <0>         0.1413
     46 H4          3.4495   -0.5353    0.1705 H         1 <0>         0.1526
     47 H5         -0.6991   -0.6427    0.2266 H         1 <0>         0.1670
     48 H6          4.4517    1.2395   -1.7745 H         1 <0>         0.1371
     49 H7          3.5551    2.7647   -1.9700 H         1 <0>         0.1451
     50 H8          5.4297    3.9086   -1.0405 H         1 <0>         0.4303
     51 H9          6.1860    2.0755   -3.2055 H         1 <0>         0.1332
     52 H10         5.2894    3.6007   -3.4011 H         1 <0>         0.1350
     53 H11         7.2054    4.8498   -2.4434 H         1 <0>         0.0987
     54 H12         8.1020    3.3247   -2.2479 H         1 <0>         0.0978
     55 H13         8.9476    2.1237   -4.1804 H         1 <0>         0.1304
     56 H14         9.7313    2.2793   -6.5082 H         1 <0>         0.1362
     57 H15         7.5934    5.9544   -6.9718 H         1 <0>         0.1629
     58 H16         6.8069    5.7836   -4.6460 H         1 <0>         0.1338
     59 H17        10.0889    4.0581   -8.4213 H         1 <0>         0.4337
     60 H18         8.0460    2.0416  -10.6999 H         1 <0>         0.1529
     61 H19         6.3521    0.2585  -10.7627 H         1 <0>         0.1473
     62 H20         3.7893    2.6277   -8.2780 H         1 <0>         0.1500
     63 H21         5.4985    4.3963   -8.2173 H         1 <0>         0.1514
     64 H22         0.6110   -2.2165   -8.5380 H         1 <0>         0.1108
     65 H23         0.5437   -0.6429   -7.7088 H         1 <0>         0.1171
     66 H24        -1.1311   -1.8598   -7.4249 H         1 <0>         0.1387
     67 H25        -3.4928   -2.2594   -6.8577 H         1 <0>         0.1426
     68 H26        -4.6881   -0.4089  -10.5139 H         1 <0>         0.1484
     69 H27        -2.3282    0.0036  -11.0793 H         1 <0>         0.1452
     70 H28         4.9784    0.5551    0.5581 H         1 <0>         0.3897
     71 H29         6.2596    2.4968   -0.8595 H         1 <0>         0.4327
@<TRIPOS>BOND
     1    1    6 ar
     2    1    2 ar
     3    1   44 1
     4    2    3 ar
     5    2   45 1
     6    3    4 ar
     7    3    7 1
     8    4    5 ar
     9    4   46 1
    10    5    6 ar
    11    6   47 1
    12    7    8 1
    13    7    9 1
    14    7   43 1
    15    9   10 1
    16    9   48 1
    17    9   49 1
    18   10   11 1
    19   10   50 1
    20   10   71 1
    21   11   12 1
    22   11   51 1
    23   11   52 1
    24   12   13 1
    25   12   53 1
    26   12   54 1
    27   13   18 ar
    28   13   14 ar
    29   14   15 ar
    30   14   55 1
    31   15   16 ar
    32   15   56 1
    33   16   17 ar
    34   16   19 1
    35   17   18 ar
    36   17   57 1
    37   18   58 1
    38   19   20 1
    39   19   59 1
    40   20   21 2
    41   20   22 2
    42   20   23 1
    43   23   28 ar
    44   23   24 ar
    45   24   25 ar
    46   24   60 1
    47   25   26 ar
    48   25   61 1
    49   26   27 ar
    50   26   29 1
    51   27   28 ar
    52   27   62 1
    53   28   63 1
    54   29   33 2
    55   29   30 1
    56   30   31 2
    57   31   32 1
    58   31   34 1
    59   32   33 1
    60   34   35 1
    61   34   64 1
    62   34   65 1
    63   35   36 1
    64   36   41 ar
    65   36   37 ar
    66   37   38 ar
    67   37   66 1
    68   38   39 ar
    69   38   67 1
    70   39   40 ar
    71   39   42 1
    72   40   41 ar
    73   40   68 1
    74   41   69 1
    75   43   70 1
@<TRIPOS>MOLECULE
CHEMBL286435
   70    74     0     0     0
SMALL
USER_CHARGES

@<TRIPOS>ATOM
      1 C1         -0.0167    1.3776    0.0096 C.ar      1 <0>        -0.1653
      2 C2          1.1849    2.0698    0.0019 C.ar      1 <0>        -0.0550
      3 C3          2.3651    1.3426   -0.0133 C.ar      1 <0>        -0.1954
      4 C4          2.3054   -0.0383   -0.0202 C.ar      1 <0>         0.1171
      5 N1          1.1443   -0.6632   -0.0129 N.ar      1 <0>        -0.4762
      6 C5          0.0021   -0.0041    0.0020 C.ar      1 <0>         0.1184
      7 C6          3.6964    2.0488   -0.0227 C.3       1 <0>         0.1403
      8 H1          3.5852    3.0397    0.4177 H         1 <0>         0.1328
      9 C7          4.1918    2.1840   -1.4640 C.3       1 <0>        -0.0425
     10 N2          5.4895    2.8724   -1.4731 N.4       1 <0>        -0.5054
     11 C8          5.9652    3.0022   -2.8569 C.3       1 <0>        -0.0112
     12 C9          7.3168    3.7191   -2.8665 C.3       1 <0>        -0.0715
     13 C10         7.8047    3.8523   -4.2861 C.ar      1 <0>        -0.2345
     14 C11         8.5838    2.8554   -4.8441 C.ar      1 <0>        -0.0637
     15 C12         9.0327    2.9742   -6.1447 C.ar      1 <0>        -0.1799
     16 C13         8.7007    4.0968   -6.8926 C.ar      1 <0>         0.2961
     17 C14         7.9179    5.0963   -6.3289 C.ar      1 <0>        -0.2645
     18 C15         7.4677    4.9685   -5.0296 C.ar      1 <0>        -0.0476
     19 N3          9.1534    4.2204   -8.2081 N.2       1 <0>        -1.0807
     20 S1          8.7565    5.5594   -9.0980 S.o2      1 <0>         2.6060
     21 O1          7.3500    5.5136   -9.2953 O.2       1 <0>        -1.0224
     22 O2          9.4036    6.6637   -8.4807 O.2       1 <0>        -1.0206
     23 C16         9.4944    5.3669  -10.6864 C.ar      1 <0>        -0.5935
     24 C17        10.7740    5.8403  -10.9136 C.ar      1 <0>        -0.0270
     25 C18        11.3569    5.6922  -12.1559 C.ar      1 <0>        -0.0982
     26 C19        10.6539    5.0644  -13.1820 C.ar      1 <0>        -0.0062
     27 C20         9.3652    4.5893  -12.9476 C.ar      1 <0>        -0.0872
     28 C21         8.7942    4.7378  -11.6998 C.ar      1 <0>        -0.0292
     29 C22        11.2753    4.9026  -14.5201 C.2       1 <0>         0.2984
     30 N4         10.6991    4.3218  -15.5877 N.2       1 <0>        -0.5055
     31 C23        11.5150    4.3452  -16.6027 C.2       1 <0>         0.2892
     32 O3         12.6501    4.9449  -16.2213 O.3       1 <0>        -0.0888
     33 N5         12.4744    5.3068  -14.8598 N.2       1 <0>        -0.3159
     34 C24        11.2301    3.7903  -17.9746 C.3       1 <0>         0.1485
     35 O4         10.6365    4.8062  -18.7855 O.3       1 <0>        -0.3028
     36 C25        10.3152    4.4675  -20.0623 C.ar      1 <0>         0.1204
     37 C26        10.5611    3.1822  -20.5223 C.ar      1 <0>        -0.1786
     38 C27        10.2341    2.8393  -21.8200 C.ar      1 <0>        -0.1107
     39 C28         9.6615    3.7780  -22.6614 C.ar      1 <0>         0.0657
     40 C29         9.4160    5.0614  -22.2037 C.ar      1 <0>        -0.1112
     41 C30         9.7359    5.4051  -20.9044 C.ar      1 <0>        -0.1144
     42 F1          9.3426    3.4415  -23.9304 F         1 <0>        -0.1384
     43 O5          4.6418    1.2932    0.7371 O.3       1 <0>        -0.5469
     44 H2         -0.9552    1.9117    0.0259 H         1 <0>         0.1455
     45 H3          1.2009    3.1496    0.0072 H         1 <0>         0.1413
     46 H4          3.2203   -0.6121   -0.0320 H         1 <0>         0.1538
     47 H5         -0.9294   -0.5505    0.0083 H         1 <0>         0.1651
     48 H6          4.3030    1.1932   -1.9044 H         1 <0>         0.1361
     49 H7          3.4707    2.7604   -2.0435 H         1 <0>         0.1429
     50 H8          5.3866    3.7896   -1.0655 H         1 <0>         0.4264
     51 H9          6.0764    2.0113   -3.2973 H         1 <0>         0.1308
     52 H10         5.2440    3.5785   -3.4365 H         1 <0>         0.1305
     53 H11         7.2056    4.7100   -2.4261 H         1 <0>         0.0798
     54 H12         8.0379    3.1428   -2.2869 H         1 <0>         0.0810
     55 H13         8.8419    1.9830   -4.2620 H         1 <0>         0.1050
     56 H14         9.6415    2.1954   -6.5798 H         1 <0>         0.1172
     57 H15         7.6583    5.9706   -6.9075 H         1 <0>         0.1017
     58 H16         6.8554    5.7432   -4.5922 H         1 <0>         0.1021
     59 H17        11.3180    6.3271  -10.1177 H         1 <0>         0.1478
     60 H18        12.3559    6.0625  -12.3324 H         1 <0>         0.1387
     61 H19         8.8158    4.1023  -13.7395 H         1 <0>         0.1450
     62 H20         7.7970    4.3660  -11.5157 H         1 <0>         0.1476
     63 H21        12.1616    3.4578  -18.4327 H         1 <0>         0.1090
     64 H22        10.5453    2.9465  -17.8902 H         1 <0>         0.1187
     65 H23        11.0083    2.4500  -19.8664 H         1 <0>         0.1412
     66 H24        10.4254    1.8387  -22.1784 H         1 <0>         0.1419
     67 H25         8.9696    5.7928  -22.8612 H         1 <0>         0.1458
     68 H26         9.5398    6.4049  -20.5461 H         1 <0>         0.1444
     69 H27         4.7910    0.3986    0.4015 H         1 <0>         0.3893
     70 H28         6.1570    2.3389   -0.9367 H         1 <0>         0.4293
@<TRIPOS>BOND
     1    1    6 ar
     2    1    2 ar
     3    1   44 1
     4    2    3 ar
     5    2   45 1
     6    3    4 ar
     7    3    7 1
     8    4    5 ar
     9    4   46 1
    10    5    6 ar
    11    6   47 1
    12    7    8 1
    13    7    9 1
    14    7   43 1
    15    9   10 1
    16    9   48 1
    17    9   49 1
    18   10   11 1
    19   10   50 1
    20   10   70 1
    21   11   12 1
    22   11   51 1
    23   11   52 1
    24   12   13 1
    25   12   53 1
    26   12   54 1
    27   13   18 ar
    28   13   14 ar
    29   14   15 ar
    30   14   55 1
    31   15   16 ar
    32   15   56 1
    33   16   17 ar
    34   16   19 1
    35   17   18 ar
    36   17   57 1
    37   18   58 1
    38   19   20 1
    39   20   21 2
    40   20   22 2
    41   20   23 1
    42   23   28 ar
    43   23   24 ar
    44   24   25 ar
    45   24   59 1
    46   25   26 ar
    47   25   60 1
    48   26   27 ar
    49   26   29 1
    50   27   28 ar
    51   27   61 1
    52   28   62 1
    53   29   33 2
    54   29   30 1
    55   30   31 2
    56   31   32 1
    57   31   34 1
    58   32   33 1
    59   34   35 1
    60   34   63 1
    61   34   64 1
    62   35   36 1
    63   36   41 ar
    64   36   37 ar
    65   37   38 ar
    66   37   65 1
    67   38   39 ar
    68   38   66 1
    69   39   40 ar
    70   39   42 1
    71   40   41 ar
    72   40   67 1
    73   41   68 1
    74   43   69 1
@<TRIPOS>MOLECULE
CHEMBL362293
   67    70     0     0     0
SMALL
USER_CHARGES

@<TRIPOS>ATOM
      1 C1         -0.0187    1.5258    0.0104 C.3       1 <0>        -0.1843
      2 C2          0.0021   -0.0041    0.0020 C.3       1 <0>         0.0273
      3 H1         -1.0205   -0.3814    0.0098 H         1 <0>         0.1397
      4 C3          0.7421   -0.5109    1.2415 C.3       1 <0>        -0.0579
      5 C4          0.6567   -2.0144    1.2978 C.2       1 <0>        -0.2301
      6 C5         -0.2496   -2.7379    1.9742 C.2       1 <0>         0.1119
      7 N1         -0.0127   -4.0722    1.7894 N.pl3     1 <0>        -0.5697
      8 H2         -0.5361   -4.7904    2.1782 H         1 <0>         0.4293
      9 C6          1.0807   -4.2438    0.9680 C.ar      1 <0>         0.1200
     10 C7          1.5430   -2.9632    0.6196 C.ar      1 <0>        -0.1031
     11 C8          2.6511   -2.8259   -0.2206 C.ar      1 <0>        -0.0877
     12 C9          3.2801   -3.9382   -0.7043 C.ar      1 <0>        -0.1081
     13 C10         2.8283   -5.2067   -0.3686 C.ar      1 <0>        -0.1034
     14 C11         1.7394   -5.3674    0.4678 C.ar      1 <0>         0.0744
     15 O1          1.3029   -6.6143    0.7889 O.3       1 <0>        -0.6605
     16 S1          0.2696   -7.1763   -0.1770 S.o2      1 <0>         2.5867
     17 O2         -0.2354   -8.3376    0.4676 O.2       1 <0>        -0.9178
     18 O3         -0.5864   -6.0805   -0.4702 O.2       1 <0>        -0.9573
     19 C12         1.2158   -7.6423   -1.6528 C.3       1 <0>        -0.6935
     20 N2          0.6897   -0.4778   -1.2066 N.4       1 <0>        -0.5061
     21 C13        -0.0856   -0.0931   -2.3936 C.3       1 <0>        -0.0466
     22 C14         0.6305   -0.5866   -3.6524 C.3       1 <0>         0.1353
     23 H3          0.7239   -1.6719   -3.6155 H         1 <0>         0.1284
     24 C15        -0.1648   -0.1919   -4.8701 C.ar      1 <0>        -0.0892
     25 C16         0.0062    1.0609   -5.4306 C.ar      1 <0>        -0.1694
     26 C17        -0.7218    1.4272   -6.5475 C.ar      1 <0>        -0.0605
     27 C18        -1.6223    0.5422   -7.1077 C.ar      1 <0>        -0.1826
     28 C19        -1.7961   -0.7168   -6.5476 C.ar      1 <0>         0.2271
     29 C20        -1.0592   -1.0835   -5.4283 C.ar      1 <0>        -0.1834
     30 N3         -2.7059   -1.6142   -7.1114 N.pl3     1 <0>        -0.7379
     31 C21        -3.4781   -1.2278   -8.2949 C.3       1 <0>         0.1652
     32 C22        -4.3792   -2.3657   -8.7003 C.ar      1 <0>        -0.1167
     33 C23        -3.9258   -3.3240   -9.5875 C.ar      1 <0>        -0.1002
     34 C24        -4.7523   -4.3678   -9.9594 C.ar      1 <0>        -0.1202
     35 C25        -6.0320   -4.4536   -9.4438 C.ar      1 <0>        -0.1069
     36 C26        -6.4850   -3.4958   -8.5558 C.ar      1 <0>        -0.1208
     37 C27        -5.6571   -2.4544   -8.1807 C.ar      1 <0>        -0.1007
     38 O4          1.9312    0.0013   -3.7219 O.3       1 <0>        -0.5473
     39 H4          1.0039    1.9031    0.0027 H         1 <0>         0.0838
     40 H5         -0.5459    1.8868   -0.8726 H         1 <0>         0.0819
     41 H6         -0.5289    1.8773    0.9072 H         1 <0>         0.1079
     42 H7          1.7879   -0.2080    1.1895 H         1 <0>         0.0974
     43 H8          0.2852   -0.0874    2.1360 H         1 <0>         0.1214
     44 H9         -1.0473   -2.3272    2.5754 H         1 <0>         0.1858
     45 H10         3.0094   -1.8426   -0.4874 H         1 <0>         0.1301
     46 H11         4.1360   -3.8293   -1.3538 H         1 <0>         0.1495
     47 H12         3.3361   -6.0763   -0.7590 H         1 <0>         0.1526
     48 H13         1.9641   -8.3880   -1.3841 H         1 <0>         0.1397
     49 H14         0.5408   -8.0581   -2.4009 H         1 <0>         0.1423
     50 H15         1.7111   -6.7609   -2.0602 H         1 <0>         0.1312
     51 H16         1.6080   -0.0627   -1.2556 H         1 <0>         0.4255
     52 H17        -1.0777   -0.5415   -2.3406 H         1 <0>         0.1431
     53 H18        -0.1790    0.9922   -2.4305 H         1 <0>         0.1403
     54 H19         0.7097    1.7547   -4.9946 H         1 <0>         0.1180
     55 H20        -0.5864    2.4065   -6.9823 H         1 <0>         0.1288
     56 H21        -2.1909    0.8290   -7.9799 H         1 <0>         0.1273
     57 H22        -1.1890   -2.0633   -4.9928 H         1 <0>         0.1228
     58 H23        -2.8265   -2.4932   -6.7194 H         1 <0>         0.4029
     59 H24        -4.0823   -0.3505   -8.0640 H         1 <0>         0.0717
     60 H25        -2.7968   -0.9946   -9.1131 H         1 <0>         0.0720
     61 H26        -2.9260   -3.2570   -9.9904 H         1 <0>         0.1235
     62 H27        -4.3984   -5.1160  -10.6531 H         1 <0>         0.1266
     63 H28        -6.6780   -5.2687   -9.7348 H         1 <0>         0.1265
     64 H29        -7.4850   -3.5626   -8.1532 H         1 <0>         0.1263
     65 H30        -6.0097   -1.7082   -7.4841 H         1 <0>         0.1227
     66 H31         1.9246    0.9676   -3.7575 H         1 <0>         0.3879
     67 H32         0.7761   -1.4825   -1.1724 H         1 <0>         0.4274
@<TRIPOS>BOND
     1    1    2 1
     2    1   39 1
     3    1   40 1
     4    1   41 1
     5    2    3 1
     6    2    4 1
     7    2   20 1
     8    4    5 1
     9    4   42 1
    10    4   43 1
    11    5   10 1
    12    5    6 2
    13    6    7 1
    14    6   44 1
    15    7    8 1
    16    7    9 1
    17    9   14 ar
    18    9   10 ar
    19   10   11 ar
    20   11   12 ar
    21   11   45 1
    22   12   13 ar
    23   12   46 1
    24   13   14 ar
    25   13   47 1
    26   14   15 1
    27   15   16 1
    28   16   17 2
    29   16   18 2
    30   16   19 1
    31   19   48 1
    32   19   49 1
    33   19   50 1
    34   20   21 1
    35   20   51 1
    36   20   67 1
    37   21   22 1
    38   21   52 1
    39   21   53 1
    40   22   23 1
    41   22   24 1
    42   22   38 1
    43   24   29 ar
    44   24   25 ar
    45   25   26 ar
    46   25   54 1
    47   26   27 ar
    48   26   55 1
    49   27   28 ar
    50   27   56 1
    51   28   29 ar
    52   28   30 1
    53   29   57 1
    54   30   31 1
    55   30   58 1
    56   31   32 1
    57   31   59 1
    58   31   60 1
    59   32   37 ar
    60   32   33 ar
    61   33   34 ar
    62   33   61 1
    63   34   35 ar
    64   34   62 1
    65   35   36 ar
    66   35   63 1
    67   36   37 ar
    68   36   64 1
    69   37   65 1
    70   38   66 1
@<TRIPOS>MOLECULE
CHEMBL568272
   52    54     0     0     0
SMALL
USER_CHARGES

@<TRIPOS>ATOM
      1 C1         -0.0187    1.5258    0.0104 C.3       1 <0>        -0.1803
      2 C2          0.0021   -0.0041    0.0020 C.3       1 <0>         0.0598
      3 C3          0.7421   -0.5109    1.2415 C.3       1 <0>        -0.1808
      4 C4         -1.4333   -0.5336    0.0129 C.3       1 <0>        -0.0891
      5 C5         -2.1387   -0.0476    1.2528 C.ar      1 <0>        -0.1124
      6 C6         -2.0922   -0.7990    2.4125 C.ar      1 <0>        -0.0917
      7 C7         -2.7383   -0.3559    3.5503 C.ar      1 <0>        -0.1427
      8 C8         -3.4339    0.8443    3.5287 C.ar      1 <0>         0.1255
      9 C9         -3.4787    1.5965    2.3639 C.ar      1 <0>        -0.1427
     10 C10        -2.8265    1.1516    1.2302 C.ar      1 <0>        -0.0919
     11 O1         -4.0708    1.2821    4.6466 O.3       1 <0>        -0.4967
     12 N1          0.6897   -0.4778   -1.2066 N.4       1 <0>        -0.4992
     13 C11         2.0678    0.0307   -1.2170 C.3       1 <0>        -0.0494
     14 C12         2.7840   -0.4628   -2.4758 C.3       1 <0>         0.1461
     15 C13         4.2310   -0.0447   -2.4270 C.ar      1 <0>        -0.1372
     16 C14         4.6351    1.1233   -3.0484 C.ar      1 <0>        -0.0816
     17 C15         5.9607    1.5125   -3.0071 C.ar      1 <0>        -0.1244
     18 C16         6.8952    0.7329   -2.3408 C.ar      1 <0>         0.1249
     19 C17         6.4930   -0.4405   -1.7157 C.ar      1 <0>         0.0773
     20 C18         5.1556   -0.8266   -1.7554 C.ar      1 <0>         0.1046
     21 O2          4.7728   -1.9758   -1.1370 O.3       1 <0>        -0.3069
     22 C19         5.7263   -3.0410   -1.1116 C.3       1 <0>         0.0501
     23 C20         7.0741   -2.5049   -0.7005 C.2       1 <0>         0.4882
     24 O3          7.8460   -3.2068   -0.0818 O.2       1 <0>        -0.4898
     25 N2          7.4204   -1.2453   -1.0346 N.am      1 <0>        -0.6551
     26 O4          8.1994    1.1157   -2.3002 O.3       1 <0>        -0.4849
     27 O5          2.1628    0.1050   -3.6307 O.3       1 <0>        -0.5444
     28 H1          1.0039    1.9031    0.0027 H         1 <0>         0.0812
     29 H2         -0.5459    1.8868   -0.8726 H         1 <0>         0.0835
     30 H3         -0.5289    1.8773    0.9072 H         1 <0>         0.1091
     31 H4          0.2319   -0.1594    2.1383 H         1 <0>         0.1087
     32 H5          0.7568   -1.6008    1.2356 H         1 <0>         0.0838
     33 H6          1.7647   -0.1336    1.2338 H         1 <0>         0.0819
     34 H7         -1.9605   -0.1726   -0.8702 H         1 <0>         0.0977
     35 H8         -1.4185   -1.6235    0.0069 H         1 <0>         0.0976
     36 H9         -1.5506   -1.7332    2.4289 H         1 <0>         0.1295
     37 H10        -2.7023   -0.9434    4.4558 H         1 <0>         0.1356
     38 H11        -4.0195    2.5311    2.3445 H         1 <0>         0.1356
     39 H12        -2.8574    1.7389    0.3244 H         1 <0>         0.1295
     40 H13        -3.5237    1.8372    5.2190 H         1 <0>         0.3990
     41 H14         0.7033   -1.4867   -1.2121 H         1 <0>         0.4281
     42 H15         2.0530    1.1205   -1.2110 H         1 <0>         0.1399
     43 H16         2.5950   -0.3304   -0.3340 H         1 <0>         0.1480
     44 H17         2.7213   -1.5498   -2.5270 H         1 <0>         0.1362
     45 H18         3.9116    1.7336   -3.5684 H         1 <0>         0.1429
     46 H19         6.2698    2.4252   -3.4949 H         1 <0>         0.1500
     47 H20         5.4043   -3.7992   -0.3977 H         1 <0>         0.1546
     48 H21         5.8000   -3.4858   -2.1040 H         1 <0>         0.1087
     49 H22         8.2941   -0.8972   -0.7971 H         1 <0>         0.4235
     50 H23         8.4214    1.6764   -1.5443 H         1 <0>         0.4011
     51 H24         2.1814    1.0716   -3.6522 H         1 <0>         0.3883
     52 H25         0.2017   -0.1436   -2.0240 H         1 <0>         0.4303
@<TRIPOS>BOND
     1    1    2 1
     2    1   28 1
     3    1   29 1
     4    1   30 1
     5    2    3 1
     6    2    4 1
     7    2   12 1
     8    3   31 1
     9    3   32 1
    10    3   33 1
    11    4    5 1
    12    4   34 1
    13    4   35 1
    14    5   10 ar
    15    5    6 ar
    16    6    7 ar
    17    6   36 1
    18    7    8 ar
    19    7   37 1
    20    8    9 ar
    21    8   11 1
    22    9   10 ar
    23    9   38 1
    24   10   39 1
    25   11   40 1
    26   12   13 1
    27   12   41 1
    28   12   52 1
    29   13   14 1
    30   13   42 1
    31   13   43 1
    32   14   15 1
    33   14   27 1
    34   14   44 1
    35   15   20 ar
    36   15   16 ar
    37   16   17 ar
    38   16   45 1
    39   17   18 ar
    40   17   46 1
    41   18   19 ar
    42   18   26 1
    43   19   25 1
    44   19   20 ar
    45   20   21 1
    46   21   22 1
    47   22   23 1
    48   22   47 1
    49   22   48 1
    50   23   24 2
    51   23   25 am
    52   25   49 1
    53   26   50 1
    54   27   51 1
@<TRIPOS>MOLECULE
CHEMBL568272
   52    54     0     0     0
SMALL
USER_CHARGES

@<TRIPOS>ATOM
      1 C1         -0.0187    1.5258    0.0104 C.3       1 <0>        -0.1810
      2 C2          0.0021   -0.0041    0.0020 C.3       1 <0>         0.0595
      3 C3          0.7421   -0.5109    1.2415 C.3       1 <0>        -0.1808
      4 C4         -1.4333   -0.5336    0.0129 C.3       1 <0>        -0.0891
      5 C5         -2.1387   -0.0476    1.2528 C.ar      1 <0>        -0.1126
      6 C6         -2.0922   -0.7990    2.4125 C.ar      1 <0>        -0.0918
      7 C7         -2.7383   -0.3559    3.5503 C.ar      1 <0>        -0.1427
      8 C8         -3.4339    0.8443    3.5287 C.ar      1 <0>         0.1257
      9 C9         -3.4787    1.5965    2.3639 C.ar      1 <0>        -0.1426
     10 C10        -2.8265    1.1516    1.2302 C.ar      1 <0>        -0.0918
     11 O1         -4.0708    1.2821    4.6466 O.3       1 <0>        -0.4966
     12 N1          0.6897   -0.4778   -1.2066 N.4       1 <0>        -0.4987
     13 C11         2.0678    0.0307   -1.2170 C.3       1 <0>        -0.0495
     14 C12         2.7840   -0.4628   -2.4758 C.3       1 <0>         0.1454
     15 C13         4.1978    0.0589   -2.4865 C.ar      1 <0>        -0.1386
     16 C14         5.2282   -0.7251   -1.9995 C.ar      1 <0>        -0.0811
     17 C15         6.5272   -0.2527   -2.0067 C.ar      1 <0>        -0.1248
     18 C16         6.8055    1.0125   -2.5037 C.ar      1 <0>         0.1256
     19 C17         5.7734    1.8023   -2.9935 C.ar      1 <0>         0.0764
     20 C18         4.4666    1.3208   -2.9891 C.ar      1 <0>         0.1067
     21 O2          3.4646    2.1018   -3.4742 O.3       1 <0>        -0.3039
     22 C19         3.6068    3.5137   -3.2985 C.3       1 <0>         0.0500
     23 C20         5.0005    3.9351   -3.6894 C.2       1 <0>         0.4876
     24 O3          5.1946    5.0362   -4.1599 O.2       1 <0>        -0.4894
     25 N2          6.0308    3.0856   -3.5023 N.am      1 <0>        -0.6544
     26 O4          8.0834    1.4774   -2.5108 O.3       1 <0>        -0.4864
     27 O5          2.8033   -1.8916   -2.4837 O.3       1 <0>        -0.5445
     28 H1          1.0039    1.9031    0.0027 H         1 <0>         0.0808
     29 H2         -0.5459    1.8868   -0.8726 H         1 <0>         0.0842
     30 H3         -0.5289    1.8773    0.9072 H         1 <0>         0.1094
     31 H4          0.2319   -0.1594    2.1383 H         1 <0>         0.1094
     32 H5          0.7568   -1.6008    1.2356 H         1 <0>         0.0837
     33 H6          1.7647   -0.1336    1.2338 H         1 <0>         0.0813
     34 H7         -1.9605   -0.1726   -0.8702 H         1 <0>         0.0978
     35 H8         -1.4185   -1.6235    0.0069 H         1 <0>         0.0979
     36 H9         -1.5506   -1.7332    2.4289 H         1 <0>         0.1295
     37 H10        -2.7023   -0.9434    4.4558 H         1 <0>         0.1357
     38 H11        -4.0195    2.5311    2.3445 H         1 <0>         0.1357
     39 H12        -2.8574    1.7389    0.3244 H         1 <0>         0.1295
     40 H13        -3.5237    1.8372    5.2190 H         1 <0>         0.3991
     41 H14         0.7033   -1.4867   -1.2121 H         1 <0>         0.4305
     42 H15         2.0530    1.1205   -1.2110 H         1 <0>         0.1451
     43 H16         2.5950   -0.3304   -0.3340 H         1 <0>         0.1405
     44 H17         2.2568   -0.1017   -3.3589 H         1 <0>         0.1388
     45 H18         5.0167   -1.7105   -1.6115 H         1 <0>         0.1428
     46 H19         7.3270   -0.8695   -1.6245 H         1 <0>         0.1499
     47 H20         2.8816    4.0323   -3.9256 H         1 <0>         0.1545
     48 H21         3.4302    3.7688   -2.2536 H         1 <0>         0.1042
     49 H22         6.9353    3.3542   -3.7272 H         1 <0>         0.4241
     50 H23         8.5732    1.2690   -3.3181 H         1 <0>         0.4029
     51 H24         3.2576   -2.2830   -1.7250 H         1 <0>         0.3877
     52 H25         0.2017   -0.1436   -2.0240 H         1 <0>         0.4285
@<TRIPOS>BOND
     1    1    2 1
     2    1   28 1
     3    1   29 1
     4    1   30 1
     5    2    3 1
     6    2    4 1
     7    2   12 1
     8    3   31 1
     9    3   32 1
    10    3   33 1
    11    4    5 1
    12    4   34 1
    13    4   35 1
    14    5   10 ar
    15    5    6 ar
    16    6    7 ar
    17    6   36 1
    18    7    8 ar
    19    7   37 1
    20    8    9 ar
    21    8   11 1
    22    9   10 ar
    23    9   38 1
    24   10   39 1
    25   11   40 1
    26   12   13 1
    27   12   41 1
    28   12   52 1
    29   13   14 1
    30   13   42 1
    31   13   43 1
    32   14   15 1
    33   14   27 1
    34   14   44 1
    35   15   20 ar
    36   15   16 ar
    37   16   17 ar
    38   16   45 1
    39   17   18 ar
    40   17   46 1
    41   18   19 ar
    42   18   26 1
    43   19   25 1
    44   19   20 ar
    45   20   21 1
    46   21   22 1
    47   22   23 1
    48   22   47 1
    49   22   48 1
    50   23   24 2
    51   23   25 am
    52   25   49 1
    53   26   50 1
    54   27   51 1
