11431614
                    3D
 Structure written by MMmdl.
 72 75  0  0  1  0            999 V2000
    2.8221    2.7879   -1.7946 O   0  0  0  0  0  0
   -3.4784    1.7426    0.3966 O   0  0  0  0  0  0
   -2.3961   -0.2671    0.4981 N   0  0  0  0  0  0
    4.5081    1.4939   -0.9759 N   0  0  0  0  0  0
   -0.6082   -3.6078   -0.0917 C   0  0  0  0  0  0
    0.7591   -4.1061    0.3731 C   0  0  0  0  0  0
   -1.6929   -4.6490    0.1815 C   0  0  0  0  0  0
    0.7205   -4.5400    1.8474 C   0  0  0  0  0  0
   -1.6814   -5.0865    1.6573 C   0  0  0  0  0  0
   -0.8364   -2.4000   -0.6738 C   0  0  0  0  0  0
   -2.1800   -2.0339   -1.1786 C   0  0  0  0  0  0
    0.2297   -1.3908   -0.8364 C   0  0  0  0  0  0
   -2.9418   -0.9781   -0.6090 C   0  0  0  0  0  0
    0.9032   -0.8620    0.2875 C   0  0  0  0  0  0
    0.5426   -0.8914   -2.1184 C   0  0  0  0  0  0
   -2.6956   -2.7387   -2.2899 C   0  0  0  0  0  0
    2.2145    0.6114   -1.1557 C   0  0  0  0  0  0
    1.8885    0.1303    0.1306 C   0  0  0  0  0  0
    1.5234    0.1066   -2.2769 C   0  0  0  0  0  0
   -4.2290   -0.6936   -1.1291 C   0  0  0  0  0  0
   -3.9651   -2.4340   -2.8116 C   0  0  0  0  0  0
   -4.7352   -1.4157   -2.2252 C   0  0  0  0  0  0
    3.2161    1.7160   -1.3335 C   0  0  0  0  0  0
   -2.6344    0.9975    0.8936 C   0  0  0  0  0  0
    5.4967    2.5803   -1.0407 C   0  0  0  0  0  0
    5.0686    0.1846   -0.6027 C   0  0  0  0  0  0
   -1.7604    1.5032    2.0465 C   0  0  0  0  0  0
    5.4980    3.4101    0.2508 C   0  0  0  0  0  0
    5.3559   -0.6816   -1.8379 C   0  0  0  0  0  0
   -1.1544    2.8652    1.7385 C   0  0  0  0  0  0
   -0.2376    3.0173    0.6748 C   0  0  0  0  0  0
   -1.4945    3.9862    2.5259 C   0  0  0  0  0  0
    0.3329    4.2753    0.4017 C   0  0  0  0  0  0
   -0.9242    5.2449    2.2522 C   0  0  0  0  0  0
   -0.0098    5.3896    1.1910 C   0  0  0  0  0  0
    1.5566   -3.3829    0.2176 H   0  0  0  0  0  0
    1.0251   -4.9634   -0.2467 H   0  0  0  0  0  0
   -1.5098   -5.5103   -0.4620 H   0  0  0  0  0  0
   -2.6911   -4.2903   -0.0639 H   0  0  0  0  0  0
    1.6815   -4.9616    2.1432 H   0  0  0  0  0  0
    0.5399   -3.6768    2.4896 H   0  0  0  0  0  0
   -1.9859   -4.2557    2.2956 H   0  0  0  0  0  0
   -2.4000   -5.8903    1.8191 H   0  0  0  0  0  0
    0.6575   -1.2105    1.2799 H   0  0  0  0  0  0
    0.0221   -1.2664   -2.9876 H   0  0  0  0  0  0
   -2.1139   -3.5274   -2.7447 H   0  0  0  0  0  0
    2.3803    0.5336    1.0042 H   0  0  0  0  0  0
    1.7416    0.4852   -3.2653 H   0  0  0  0  0  0
   -4.8546    0.0714   -0.6963 H   0  0  0  0  0  0
   -4.3501   -2.9853   -3.6569 H   0  0  0  0  0  0
   -1.6308   -0.7293    0.9657 H   0  0  0  0  0  0
   -5.7157   -1.1867   -2.6159 H   0  0  0  0  0  0
    6.4950    2.1758   -1.2137 H   0  0  0  0  0  0
    5.3072    3.2296   -1.8972 H   0  0  0  0  0  0
    5.9959    0.3248   -0.0456 H   0  0  0  0  0  0
    4.4231   -0.3543    0.0873 H   0  0  0  0  0  0
   -2.3696    1.5550    2.9495 H   0  0  0  0  0  0
   -0.9515    0.8006    2.2523 H   0  0  0  0  0  0
    6.2446    4.2028    0.2006 H   0  0  0  0  0  0
    4.5286    3.8792    0.4225 H   0  0  0  0  0  0
    5.7293    2.7905    1.1178 H   0  0  0  0  0  0
    5.8072   -1.6304   -1.5474 H   0  0  0  0  0  0
    4.4439   -0.9070   -2.3909 H   0  0  0  0  0  0
    6.0455   -0.1814   -2.5184 H   0  0  0  0  0  0
    0.0247    2.1707    0.0589 H   0  0  0  0  0  0
   -2.1938    3.8861    3.3431 H   0  0  0  0  0  0
    1.0317    4.3854   -0.4144 H   0  0  0  0  0  0
   -1.1881    6.0998    2.8572 H   0  0  0  0  0  0
    0.4270    6.3549    0.9814 H   0  0  0  0  0  0
   -0.3389   -5.5467    2.0739 N   0  3  0  0  0  0
   -0.3624   -5.7857    3.0553 H   0  0  0  0  0  0
   -0.1085   -6.3758    1.5447 H   0  0  0  0  0  0
  1 23  2  0  0  0
  2 24  2  0  0  0
  3 13  1  0  0  0
  3 24  1  0  0  0
  3 51  1  0  0  0
  4 23  1  0  0  0
  4 25  1  0  0  0
  4 26  1  0  0  0
  5  6  1  0  0  0
  5  7  1  0  0  0
  5 10  2  0  0  0
  6  8  1  0  0  0
  6 36  1  0  0  0
  6 37  1  0  0  0
  7  9  1  0  0  0
  7 38  1  0  0  0
  7 39  1  0  0  0
  8 40  1  0  0  0
  8 41  1  0  0  0
  8 70  1  0  0  0
  9 42  1  0  0  0
  9 43  1  0  0  0
  9 70  1  0  0  0
 10 11  1  0  0  0
 10 12  1  0  0  0
 11 13  1  0  0  0
 11 16  2  0  0  0
 12 14  2  0  0  0
 12 15  1  0  0  0
 13 20  2  0  0  0
 14 18  1  0  0  0
 14 44  1  0  0  0
 15 19  2  0  0  0
 15 45  1  0  0  0
 16 21  1  0  0  0
 16 46  1  0  0  0
 17 18  2  0  0  0
 17 19  1  0  0  0
 17 23  1  0  0  0
 18 47  1  0  0  0
 19 48  1  0  0  0
 20 22  1  0  0  0
 20 49  1  0  0  0
 21 22  2  0  0  0
 21 50  1  0  0  0
 22 52  1  0  0  0
 24 27  1  0  0  0
 25 28  1  0  0  0
 25 53  1  0  0  0
 25 54  1  0  0  0
 26 29  1  0  0  0
 26 55  1  0  0  0
 26 56  1  0  0  0
 27 30  1  0  0  0
 27 57  1  0  0  0
 27 58  1  0  0  0
 28 59  1  0  0  0
 28 60  1  0  0  0
 28 61  1  0  0  0
 29 62  1  0  0  0
 29 63  1  0  0  0
 29 64  1  0  0  0
 30 31  2  0  0  0
 30 32  1  0  0  0
 31 33  1  0  0  0
 31 65  1  0  0  0
 32 34  2  0  0  0
 32 66  1  0  0  0
 33 35  2  0  0  0
 33 67  1  0  0  0
 34 35  1  0  0  0
 34 68  1  0  0  0
 35 69  1  0  0  0
 70 71  1  0  0  0
 70 72  1  0  0  0
M  CHG  1  70   1
M  END
> <LID>
L023441

> <PC_CID>
11431614

> <Names>


> <CAS_Numbers>


$$$$
10228517
                    3D
 Structure written by MMmdl.
 70 74  0  0  1  0            999 V2000
    5.8124   -3.8496    0.7141 S   0  0  0  0  0  0
   -5.9337    0.0049    0.1188 O   0  0  0  0  0  0
    1.4295    2.6930   -1.4623 N   0  0  0  0  0  0
   -5.2383   -2.1640    0.1592 N   0  0  0  0  0  0
    1.4675    0.3759    0.9238 C   0  0  0  0  0  0
    2.8956    0.8695    1.1259 C   0  0  0  0  0  0
    1.4110   -1.1465    0.8717 C   0  0  0  0  0  0
    3.8371    0.2827    0.0626 C   0  0  0  0  0  0
    2.3884   -1.6983   -0.1802 C   0  0  0  0  0  0
    0.3911    1.1905    0.7777 C   0  0  0  0  0  0
    4.7622   -1.7860   -0.9017 C   0  0  0  0  0  0
    0.5294    2.6598    0.7806 C   0  0  0  0  0  0
   -0.9762    0.6624    0.6353 C   0  0  0  0  0  0
    4.9599   -3.2518   -0.6873 C   0  0  0  0  0  0
    1.0344    3.3599   -0.3484 C   0  0  0  0  0  0
    0.1021    3.3680    1.9240 C   0  0  0  0  0  0
   -1.7010    0.8849   -0.5544 C   0  0  0  0  0  0
   -1.5948   -0.0287    1.6995 C   0  0  0  0  0  0
    1.1179    4.7801   -0.2780 C   0  0  0  0  0  0
    4.5326   -4.2839   -1.4840 C   0  0  0  0  0  0
   -3.0155    0.3988   -0.6901 C   0  0  0  0  0  0
   -2.9088   -0.5161    1.5652 C   0  0  0  0  0  0
   -3.6197   -0.3209    0.3619 C   0  0  0  0  0  0
    0.1918    4.7694    1.9749 C   0  0  0  0  0  0
    0.7029    5.4766    0.8742 C   0  0  0  0  0  0
    4.8860   -5.5679   -0.9751 C   0  0  0  0  0  0
    5.5790   -5.4988    0.2041 C   0  0  0  0  0  0
    1.6221    5.4969   -1.3827 C   0  0  0  0  0  0
   -5.0259   -0.8226    0.2088 C   0  0  0  0  0  0
    1.9087    3.3859   -2.5155 C   0  0  0  0  0  0
    2.0270    4.7865   -2.5262 C   0  0  0  0  0  0
   -6.6028   -2.6959    0.0257 C   0  0  0  0  0  0
   -4.1804   -3.1871    0.0987 C   0  0  0  0  0  0
   -7.0889   -2.6684   -1.4319 C   0  0  0  0  0  0
   -3.9814   -3.9064    1.4427 C   0  0  0  0  0  0
    2.9709    1.9557    1.1203 H   0  0  0  0  0  0
    3.2232    0.5541    2.1173 H   0  0  0  0  0  0
    1.6713   -1.5329    1.8578 H   0  0  0  0  0  0
    0.4125   -1.5195    0.6497 H   0  0  0  0  0  0
    3.5778    0.6749   -0.9223 H   0  0  0  0  0  0
    4.8581    0.6042    0.2723 H   0  0  0  0  0  0
    2.0552   -1.4130   -1.1795 H   0  0  0  0  0  0
    2.3675   -2.7876   -0.1406 H   0  0  0  0  0  0
    4.4523   -1.5903   -1.9295 H   0  0  0  0  0  0
    5.7236   -1.2872   -0.7722 H   0  0  0  0  0  0
   -0.2960    2.8312    2.7730 H   0  0  0  0  0  0
   -1.2481    1.4292   -1.3704 H   0  0  0  0  0  0
   -1.0615   -0.1828    2.6263 H   0  0  0  0  0  0
    3.9821   -4.1642   -2.4057 H   0  0  0  0  0  0
   -3.5564    0.5760   -1.6087 H   0  0  0  0  0  0
   -3.3715   -1.0260    2.3966 H   0  0  0  0  0  0
   -0.1334    5.3012    2.8573 H   0  0  0  0  0  0
    0.7696    6.5543    0.9168 H   0  0  0  0  0  0
    4.6235   -6.4837   -1.4842 H   0  0  0  0  0  0
    5.9657   -6.3119    0.8012 H   0  0  0  0  0  0
    1.6973    6.5745   -1.3583 H   0  0  0  0  0  0
    2.2080    2.8047   -3.3752 H   0  0  0  0  0  0
    2.4168    5.3027   -3.3912 H   0  0  0  0  0  0
   -6.6457   -3.7214    0.3935 H   0  0  0  0  0  0
   -7.2928   -2.1353    0.6589 H   0  0  0  0  0  0
   -4.4498   -3.9249   -0.6583 H   0  0  0  0  0  0
   -3.2305   -2.7772   -0.2449 H   0  0  0  0  0  0
   -8.0930   -3.0853   -1.5111 H   0  0  0  0  0  0
   -7.1236   -1.6516   -1.8237 H   0  0  0  0  0  0
   -6.4357   -3.2545   -2.0788 H   0  0  0  0  0  0
   -3.1970   -4.6589    1.3605 H   0  0  0  0  0  0
   -3.6920   -3.2194    2.2354 H   0  0  0  0  0  0
   -4.8890   -4.4169    1.7645 H   0  0  0  0  0  0
    3.7734   -1.2008    0.0374 N   0  3  1  0  0  0
    4.0474   -1.5090    0.9595 H   0  0  0  0  0  0
  1 14  1  0  0  0
  1 27  1  0  0  0
  2 29  2  0  0  0
  3 15  1  0  0  0
  3 30  2  0  0  0
  4 29  1  0  0  0
  4 32  1  0  0  0
  4 33  1  0  0  0
  5  6  1  0  0  0
  5  7  1  0  0  0
  5 10  2  0  0  0
  6  8  1  0  0  0
  6 36  1  0  0  0
  6 37  1  0  0  0
  7  9  1  0  0  0
  7 38  1  0  0  0
  7 39  1  0  0  0
  8 40  1  0  0  0
  8 41  1  0  0  0
  8 69  1  0  0  0
  9 42  1  0  0  0
  9 43  1  0  0  0
  9 69  1  0  0  0
 10 12  1  0  0  0
 10 13  1  0  0  0
 11 14  1  0  0  0
 11 44  1  0  0  0
 11 45  1  0  0  0
 11 69  1  0  0  0
 12 15  1  0  0  0
 12 16  2  0  0  0
 13 17  2  0  0  0
 13 18  1  0  0  0
 14 20  2  0  0  0
 15 19  2  0  0  0
 16 24  1  0  0  0
 16 46  1  0  0  0
 17 21  1  0  0  0
 17 47  1  0  0  0
 18 22  2  0  0  0
 18 48  1  0  0  0
 19 25  1  0  0  0
 19 28  1  0  0  0
 20 26  1  0  0  0
 20 49  1  0  0  0
 21 23  2  0  0  0
 21 50  1  0  0  0
 22 23  1  0  0  0
 22 51  1  0  0  0
 23 29  1  0  0  0
 24 25  2  0  0  0
 24 52  1  0  0  0
 25 53  1  0  0  0
 26 27  2  0  0  0
 26 54  1  0  0  0
 27 55  1  0  0  0
 28 31  2  0  0  0
 28 56  1  0  0  0
 30 31  1  0  0  0
 30 57  1  0  0  0
 31 58  1  0  0  0
 32 34  1  0  0  0
 32 59  1  0  0  0
 32 60  1  0  0  0
 33 35  1  0  0  0
 33 61  1  0  0  0
 33 62  1  0  0  0
 34 63  1  0  0  0
 34 64  1  0  0  0
 34 65  1  0  0  0
 35 66  1  0  0  0
 35 67  1  0  0  0
 35 68  1  0  0  0
 69 70  1  0  0  0
M  CHG  1  69   1
M  END
> <LID>
L020880

> <PC_CID>
10228517

> <Names>


> <CAS_Numbers>


$$$$
5284371
                    3D
 Structure written by MMmdl.
 44 48  0  0  1  0            999 V2000
   -1.6185   -0.8720    1.1016 O   0  0  0  0  0  0
   -1.8678   -3.2258   -0.1478 O   0  0  0  0  0  0
   -3.7582    1.2131    0.2750 O   0  0  0  0  0  0
    0.6975   -0.5705    0.6575 C   0  0  1  0  0  0
    1.7914   -1.0142   -0.3305 C   0  0  2  0  0  0
    2.6251    0.2407   -0.6836 C   0  0  1  0  0  0
   -0.3966   -1.6296    1.0131 C   0  0  2  0  0  0
    1.3892   -0.0495    1.9410 C   0  0  0  0  0  0
   -0.1386    0.5129    0.0321 C   0  0  0  0  0  0
    1.7602    1.3584   -1.3376 C   0  0  0  0  0  0
    2.4005    1.0771    1.6553 C   0  0  0  0  0  0
    0.3265    1.5183   -0.8311 C   0  0  0  0  0  0
   -0.5303   -2.7875   -0.0216 C   0  0  2  0  0  0
    1.1738   -1.7249   -1.5208 C   0  0  0  0  0  0
   -1.4513    0.2921    0.4072 C   0  0  0  0  0  0
    0.0973   -2.5135   -1.3784 C   0  0  0  0  0  0
    4.3905    1.7012    0.3262 C   0  0  0  0  0  0
   -0.6348    2.4559   -1.2545 C   0  0  0  0  0  0
   -2.4109    1.2523   -0.0179 C   0  0  0  0  0  0
   -1.9785    2.3337   -0.8273 C   0  0  0  0  0  0
   -4.2565    0.1492    1.0705 C   0  0  0  0  0  0
    2.4432   -1.7492    0.1452 H   0  0  0  0  0  0
    3.4054   -0.0474   -1.3899 H   0  0  0  0  0  0
   -0.2079   -2.0722    1.9921 H   0  0  0  0  0  0
    1.9102   -0.8758    2.4268 H   0  0  0  0  0  0
    0.6469    0.3018    2.6592 H   0  0  0  0  0  0
    1.6666    1.1251   -2.3987 H   0  0  0  0  0  0
    2.2554    2.3275   -1.3071 H   0  0  0  0  0  0
    1.8835    2.0045    1.4068 H   0  0  0  0  0  0
    2.9761    1.2830    2.5585 H   0  0  0  0  0  0
    0.0235   -3.6417    0.3695 H   0  0  0  0  0  0
    1.6251   -1.5803   -2.4915 H   0  0  0  0  0  0
   -0.3217   -3.0216   -2.2349 H   0  0  0  0  0  0
    4.9886    1.8261    1.2294 H   0  0  0  0  0  0
    5.0625    1.3811   -0.4707 H   0  0  0  0  0  0
    3.9832    2.6772    0.0630 H   0  0  0  0  0  0
   -0.3551    3.2505   -1.9305 H   0  0  0  0  0  0
   -2.7032    3.0601   -1.1649 H   0  0  0  0  0  0
   -2.2094   -3.4020    0.7156 H   0  0  0  0  0  0
   -5.3272    0.2859    1.2205 H   0  0  0  0  0  0
   -4.1157   -0.8147    0.5797 H   0  0  0  0  0  0
   -3.7876    0.1319    2.0551 H   0  0  0  0  0  0
    3.3241    0.6990    0.5558 N   0  3  2  0  0  0
    3.8114   -0.1203    0.8901 H   0  0  0  0  0  0
  1  7  1  0  0  0
  1 15  1  0  0  0
  2 13  1  0  0  0
  2 39  1  0  0  0
  3 19  1  0  0  0
  3 21  1  0  0  0
  4  5  1  0  0  0
  4  7  1  0  0  0
  4  8  1  0  0  0
  4  9  1  0  0  0
  5  6  1  0  0  0
  5 14  1  0  0  0
  5 22  1  0  0  0
  6 10  1  0  0  0
  6 23  1  0  0  0
  6 43  1  0  0  0
  7 13  1  0  0  0
  7 24  1  0  0  0
  8 11  1  0  0  0
  8 25  1  0  0  0
  8 26  1  0  0  0
  9 12  2  0  0  0
  9 15  1  0  0  0
 10 12  1  0  0  0
 10 27  1  0  0  0
 10 28  1  0  0  0
 11 29  1  0  0  0
 11 30  1  0  0  0
 11 43  1  0  0  0
 12 18  1  0  0  0
 13 16  1  0  0  0
 13 31  1  0  0  0
 14 16  2  0  0  0
 14 32  1  0  0  0
 15 19  2  0  0  0
 16 33  1  0  0  0
 17 34  1  0  0  0
 17 35  1  0  0  0
 17 36  1  0  0  0
 17 43  1  0  0  0
 18 20  2  0  0  0
 18 37  1  0  0  0
 19 20  1  0  0  0
 20 38  1  0  0  0
 21 40  1  0  0  0
 21 41  1  0  0  0
 21 42  1  0  0  0
 43 44  1  0  0  0
M  CHG  1  43   1
M  END
> <LID>
L001048

> <PC_CID>
5284371

> <Names>
Codeine

> <CAS_Numbers>
41444-62-6;76-57-3

$$$$
10368206
                    3D
 Structure written by MMmdl.
 70 73  0  0  1  0            999 V2000
   -7.9617    3.8558   -2.4499 Cl  0  0  0  0  0  0
    3.5633    3.7111   -0.8206 O   0  0  0  0  0  0
    5.4847    2.7145   -0.1104 N   0  0  0  0  0  0
   -3.4464   -0.1192    0.6640 N   0  0  0  0  0  0
    1.4063   -3.3100   -0.0127 C   0  0  0  0  0  0
    0.5780   -4.5869    0.1167 C   0  0  0  0  0  0
    2.7421   -3.5788   -0.7030 C   0  0  0  0  0  0
    0.4268   -5.2908   -1.2435 C   0  0  0  0  0  0
    2.5384   -4.2948   -2.0482 C   0  0  0  0  0  0
    1.0022   -2.0882    0.4222 C   0  0  0  0  0  0
    1.8207   -0.8824    0.2137 C   0  0  0  0  0  0
   -0.2708   -1.8942    1.1377 C   0  0  0  0  0  0
   -1.2868   -1.0972    0.5681 C   0  0  0  0  0  0
    1.9793   -0.3381   -1.0790 C   0  0  0  0  0  0
    2.4109   -0.2278    1.3148 C   0  0  0  0  0  0
   -0.4736   -2.4630    2.4136 C   0  0  0  0  0  0
   -2.5032   -0.8825    1.2487 C   0  0  0  0  0  0
    3.3661    1.4606   -0.1751 C   0  0  0  0  0  0
    2.7447    0.8277   -1.2721 C   0  0  0  0  0  0
    3.1764    0.9384    1.1233 C   0  0  0  0  0  0
   -1.6847   -2.2547    3.0994 C   0  0  0  0  0  0
   -2.6985   -1.4688    2.5195 C   0  0  0  0  0  0
    4.1551    2.7198   -0.3918 C   0  0  0  0  0  0
   -4.7578    0.2173    1.1938 C   0  0  0  0  0  0
    6.2801    3.9447   -0.2360 C   0  0  0  0  0  0
    6.2701    1.5186    0.2372 C   0  0  0  0  0  0
   -5.5577    1.1263    0.2811 C   0  0  0  0  0  0
    6.2406    4.7693    1.0580 C   0  0  0  0  0  0
    6.6313    0.6948   -1.0077 C   0  0  0  0  0  0
   -6.8141    0.7116   -0.2085 C   0  0  0  0  0  0
   -5.0527    2.3942   -0.0781 C   0  0  0  0  0  0
   -7.5582    1.5570   -1.0548 C   0  0  0  0  0  0
   -5.7971    3.2393   -0.9243 C   0  0  0  0  0  0
   -7.0499    2.8208   -1.4133 C   0  0  0  0  0  0
   -0.4146   -4.4014    0.5238 H   0  0  0  0  0  0
    1.0807   -5.2493    0.8225 H   0  0  0  0  0  0
    3.3317   -2.6762   -0.8538 H   0  0  0  0  0  0
    3.3367   -4.2109   -0.0423 H   0  0  0  0  0  0
   -0.1850   -4.6838   -1.9126 H   0  0  0  0  0  0
   -0.0880   -6.2441   -1.1208 H   0  0  0  0  0  0
    3.5016   -4.5507   -2.4904 H   0  0  0  0  0  0
    2.0302   -3.6344   -2.7524 H   0  0  0  0  0  0
   -1.1280   -0.6491   -0.4025 H   0  0  0  0  0  0
    1.5114   -0.8153   -1.9277 H   0  0  0  0  0  0
    2.2763   -0.6193    2.3127 H   0  0  0  0  0  0
    0.3015   -3.0621    2.8691 H   0  0  0  0  0  0
    2.8567    1.2324   -2.2678 H   0  0  0  0  0  0
    3.6166    1.4312    1.9783 H   0  0  0  0  0  0
   -1.8356   -2.6960    4.0736 H   0  0  0  0  0  0
   -3.6193   -1.3215    3.0642 H   0  0  0  0  0  0
   -3.2321    0.2618   -0.2464 H   0  0  0  0  0  0
   -5.3146   -0.7028    1.3752 H   0  0  0  0  0  0
   -4.6381    0.7140    2.1573 H   0  0  0  0  0  0
    7.3153    3.7027   -0.4811 H   0  0  0  0  0  0
    5.9306    4.5524   -1.0724 H   0  0  0  0  0  0
    7.1897    1.8155    0.7435 H   0  0  0  0  0  0
    5.7574    0.8913    0.9633 H   0  0  0  0  0  0
    6.8461    5.6706    0.9610 H   0  0  0  0  0  0
    5.2235    5.0788    1.3005 H   0  0  0  0  0  0
    6.6281    4.1983    1.9022 H   0  0  0  0  0  0
    7.2467   -0.1633   -0.7371 H   0  0  0  0  0  0
    5.7416    0.3156   -1.5105 H   0  0  0  0  0  0
    7.1934    1.2921   -1.7262 H   0  0  0  0  0  0
   -7.2114   -0.2561    0.0612 H   0  0  0  0  0  0
   -4.0934    2.7216    0.2957 H   0  0  0  0  0  0
   -8.5191    1.2347   -1.4281 H   0  0  0  0  0  0
   -5.4061    4.2086   -1.1967 H   0  0  0  0  0  0
    1.7420   -5.5289   -1.8764 N   0  3  0  0  0  0
    1.5995   -5.9572   -2.7803 H   0  0  0  0  0  0
    2.2651   -6.1675   -1.2942 H   0  0  0  0  0  0
  1 34  1  0  0  0
  2 23  2  0  0  0
  3 23  1  0  0  0
  3 25  1  0  0  0
  3 26  1  0  0  0
  4 17  1  0  0  0
  4 24  1  0  0  0
  4 51  1  0  0  0
  5  6  1  0  0  0
  5  7  1  0  0  0
  5 10  2  0  0  0
  6  8  1  0  0  0
  6 35  1  0  0  0
  6 36  1  0  0  0
  7  9  1  0  0  0
  7 37  1  0  0  0
  7 38  1  0  0  0
  8 39  1  0  0  0
  8 40  1  0  0  0
  8 68  1  0  0  0
  9 41  1  0  0  0
  9 42  1  0  0  0
  9 68  1  0  0  0
 10 11  1  0  0  0
 10 12  1  0  0  0
 11 14  2  0  0  0
 11 15  1  0  0  0
 12 13  2  0  0  0
 12 16  1  0  0  0
 13 17  1  0  0  0
 13 43  1  0  0  0
 14 19  1  0  0  0
 14 44  1  0  0  0
 15 20  2  0  0  0
 15 45  1  0  0  0
 16 21  2  0  0  0
 16 46  1  0  0  0
 17 22  2  0  0  0
 18 19  2  0  0  0
 18 20  1  0  0  0
 18 23  1  0  0  0
 19 47  1  0  0  0
 20 48  1  0  0  0
 21 22  1  0  0  0
 21 49  1  0  0  0
 22 50  1  0  0  0
 24 27  1  0  0  0
 24 52  1  0  0  0
 24 53  1  0  0  0
 25 28  1  0  0  0
 25 54  1  0  0  0
 25 55  1  0  0  0
 26 29  1  0  0  0
 26 56  1  0  0  0
 26 57  1  0  0  0
 27 30  2  0  0  0
 27 31  1  0  0  0
 28 58  1  0  0  0
 28 59  1  0  0  0
 28 60  1  0  0  0
 29 61  1  0  0  0
 29 62  1  0  0  0
 29 63  1  0  0  0
 30 32  1  0  0  0
 30 64  1  0  0  0
 31 33  2  0  0  0
 31 65  1  0  0  0
 32 34  2  0  0  0
 32 66  1  0  0  0
 33 34  1  0  0  0
 33 67  1  0  0  0
 68 69  1  0  0  0
 68 70  1  0  0  0
M  CHG  1  68   1
M  END
> <LID>
L022975

> <PC_CID>
10368206

> <Names>


> <CAS_Numbers>


$$$$
10100
                    3D
 Structure written by MMmdl.
 55 56  0  0  1  0            999 V2000
    1.4609   -0.1383    0.3984 O   0  0  0  0  0  0
    2.4379    1.8961    0.9085 O   0  0  0  0  0  0
    0.4951    0.2680   -0.5924 C   0  0  2  0  0  0
   -0.6716    1.1054    0.0930 C   0  0  1  0  0  0
   -0.0301   -1.0880   -1.1703 C   0  0  0  0  0  0
   -1.0438    0.6519    1.5374 C   0  0  0  0  0  0
    1.1241    0.9571   -1.8303 C   0  0  0  0  0  0
   -0.4854    2.6475    0.1227 C   0  0  0  0  0  0
   -0.6745   -2.0794   -0.2119 C   0  0  0  0  0  0
    2.5129    0.8835   -2.1063 C   0  0  0  0  0  0
    0.2896    1.5631   -2.8026 C   0  0  0  0  0  0
    2.2927    0.6885    1.0849 C   0  0  0  0  0  0
   -3.5206    0.5176    1.4629 C   0  0  0  0  0  0
   -2.3959    1.2879    3.4936 C   0  0  0  0  0  0
   -2.0772   -2.2385   -0.1990 C   0  0  0  0  0  0
    0.1211   -2.8693    0.6463 C   0  0  0  0  0  0
    3.0547    1.4633   -3.2696 C   0  0  0  0  0  0
    0.8278    2.1439   -3.9668 C   0  0  0  0  0  0
    3.1003   -0.0572    2.1433 C   0  0  0  0  0  0
    2.2138    2.1024   -4.1975 C   0  0  0  0  0  0
   -2.6793   -3.1571    0.6825 C   0  0  0  0  0  0
   -0.4814   -3.7852    1.5300 C   0  0  0  0  0  0
   -1.8820   -3.9273    1.5505 C   0  0  0  0  0  0
    2.2117   -0.5995    3.2715 C   0  0  0  0  0  0
   -1.5385    0.9445   -0.5465 H   0  0  0  0  0  0
   -0.7446   -0.8938   -1.9715 H   0  0  0  0  0  0
    0.7958   -1.6154   -1.6513 H   0  0  0  0  0  0
   -1.0724   -0.4264    1.6593 H   0  0  0  0  0  0
   -0.2565    0.9880    2.2121 H   0  0  0  0  0  0
    0.1987    2.9632    0.9080 H   0  0  0  0  0  0
   -0.1244    3.0796   -0.8061 H   0  0  0  0  0  0
   -1.4338    3.1435    0.3290 H   0  0  0  0  0  0
    3.1873    0.3717   -1.4379 H   0  0  0  0  0  0
   -0.7803    1.5911   -2.6605 H   0  0  0  0  0  0
   -4.4376    1.0074    1.7920 H   0  0  0  0  0  0
   -3.5227    0.5275    0.3737 H   0  0  0  0  0  0
   -3.5561   -0.5204    1.7955 H   0  0  0  0  0  0
   -3.3296    1.7477    3.8193 H   0  0  0  0  0  0
   -2.3299    0.2944    3.9396 H   0  0  0  0  0  0
   -1.5784    1.8943    3.8856 H   0  0  0  0  0  0
   -2.6977   -1.6524   -0.8610 H   0  0  0  0  0  0
    1.1969   -2.7721    0.6340 H   0  0  0  0  0  0
    4.1174    1.4073   -3.4548 H   0  0  0  0  0  0
    0.1749    2.6148   -4.6869 H   0  0  0  0  0  0
    3.6362   -0.8761    1.6630 H   0  0  0  0  0  0
    3.8530    0.6163    2.5540 H   0  0  0  0  0  0
    2.6288    2.5444   -5.0914 H   0  0  0  0  0  0
   -3.7533   -3.2714    0.6925 H   0  0  0  0  0  0
    0.1317   -4.3815    2.1897 H   0  0  0  0  0  0
   -2.3438   -4.6318    2.2266 H   0  0  0  0  0  0
    1.6770    0.2057    3.7765 H   0  0  0  0  0  0
    1.4745   -1.3103    2.8968 H   0  0  0  0  0  0
    2.8141   -1.1150    4.0195 H   0  0  0  0  0  0
   -2.3349    1.2109    2.0168 N   0  3  0  0  0  0
   -2.3713    2.1653    1.6873 H   0  0  0  0  0  0
  1  3  1  0  0  0
  1 12  1  0  0  0
  2 12  2  0  0  0
  3  4  1  0  0  0
  3  5  1  0  0  0
  3  7  1  0  0  0
  4  6  1  0  0  0
  4  8  1  0  0  0
  4 25  1  0  0  0
  5  9  1  0  0  0
  5 26  1  0  0  0
  5 27  1  0  0  0
  6 28  1  0  0  0
  6 29  1  0  0  0
  6 54  1  0  0  0
  7 10  2  0  0  0
  7 11  1  0  0  0
  8 30  1  0  0  0
  8 31  1  0  0  0
  8 32  1  0  0  0
  9 15  2  0  0  0
  9 16  1  0  0  0
 10 17  1  0  0  0
 10 33  1  0  0  0
 11 18  2  0  0  0
 11 34  1  0  0  0
 12 19  1  0  0  0
 13 35  1  0  0  0
 13 36  1  0  0  0
 13 37  1  0  0  0
 13 54  1  0  0  0
 14 38  1  0  0  0
 14 39  1  0  0  0
 14 40  1  0  0  0
 14 54  1  0  0  0
 15 21  1  0  0  0
 15 41  1  0  0  0
 16 22  2  0  0  0
 16 42  1  0  0  0
 17 20  2  0  0  0
 17 43  1  0  0  0
 18 20  1  0  0  0
 18 44  1  0  0  0
 19 24  1  0  0  0
 19 45  1  0  0  0
 19 46  1  0  0  0
 20 47  1  0  0  0
 21 23  2  0  0  0
 21 48  1  0  0  0
 22 23  1  0  0  0
 22 49  1  0  0  0
 23 50  1  0  0  0
 24 51  1  0  0  0
 24 52  1  0  0  0
 24 53  1  0  0  0
 54 55  1  0  0  0
M  CHG  1  54   1
M  END
> <LID>
L001219

> <PC_CID>
10100

> <Names>
Propoxyphene

> <CAS_Numbers>
21086-94-2;3818-94-8;469-62-5

$$$$
9818211
                    3D
 Structure written by MMmdl.
 44 46  0  0  1  0            999 V2000
    2.7184   -0.8755    1.9283 S   0  0  0  0  0  0
   -3.7011    2.2115   -1.4917 O   0  0  0  0  0  0
    0.2401   -1.5012    0.1398 C   0  0  0  0  0  0
    1.4668   -2.3808   -0.0732 C   0  0  0  0  0  0
    0.3065   -0.1489    0.0404 C   0  0  0  0  0  0
   -1.0294   -2.2704    0.5081 C   0  0  0  0  0  0
    1.5973    0.5398   -0.1951 C   0  0  0  0  0  0
    2.3309   -2.4921    1.1910 C   0  0  0  0  0  0
   -0.8734    0.6867    0.3104 C   0  0  0  0  0  0
    2.7542    0.2819    0.5895 C   0  0  0  0  0  0
    1.6821    1.4971   -1.2313 C   0  0  0  0  0  0
    3.9561    0.9718    0.3346 C   0  0  0  0  0  0
   -1.7384    1.0554   -0.7404 C   0  0  0  0  0  0
   -1.1130    1.1501    1.6203 C   0  0  0  0  0  0
   -2.5269   -4.0996   -0.1626 C   0  0  0  0  0  0
   -1.9981   -2.3305   -1.7738 C   0  0  0  0  0  0
    2.8861    2.1802   -1.4873 C   0  0  0  0  0  0
    4.0244    1.9178   -0.7043 C   0  0  0  0  0  0
   -2.8591    1.8661   -0.4755 C   0  0  0  0  0  0
   -2.2330    1.9628    1.8823 C   0  0  0  0  0  0
   -3.1074    2.3183    0.8362 C   0  0  0  0  0  0
    1.1693   -3.3757   -0.4042 H   0  0  0  0  0  0
    2.0655   -1.9807   -0.8924 H   0  0  0  0  0  0
   -0.7865   -2.9036    1.3626 H   0  0  0  0  0  0
   -1.8356   -1.6174    0.8420 H   0  0  0  0  0  0
    1.8286   -3.0989    1.9447 H   0  0  0  0  0  0
    3.2661   -2.9985    0.9511 H   0  0  0  0  0  0
    0.8190    1.7123   -1.8438 H   0  0  0  0  0  0
    4.8304    0.7769    0.9384 H   0  0  0  0  0  0
   -1.5461    0.7167   -1.7480 H   0  0  0  0  0  0
   -0.4422    0.8817    2.4239 H   0  0  0  0  0  0
   -2.8192   -4.7553   -0.9836 H   0  0  0  0  0  0
   -2.1265   -4.7281    0.6337 H   0  0  0  0  0  0
   -3.4220   -3.6012    0.2121 H   0  0  0  0  0  0
   -2.3246   -2.9929   -2.5762 H   0  0  0  0  0  0
   -2.8387   -1.6928   -1.4968 H   0  0  0  0  0  0
   -1.2064   -1.6996   -2.1780 H   0  0  0  0  0  0
    2.9352    2.9076   -2.2843 H   0  0  0  0  0  0
    4.9479    2.4436   -0.8978 H   0  0  0  0  0  0
   -2.4209    2.3150    2.8859 H   0  0  0  0  0  0
   -3.9647    2.9416    1.0448 H   0  0  0  0  0  0
   -4.4125    2.7682   -1.2140 H   0  0  0  0  0  0
   -1.5194   -3.1137   -0.6115 N   0  3  0  0  0  0
   -0.7261   -3.6502   -0.9331 H   0  0  0  0  0  0
  1  8  1  0  0  0
  1 10  1  0  0  0
  2 19  1  0  0  0
  2 42  1  0  0  0
  3  4  1  0  0  0
  3  5  2  0  0  0
  3  6  1  0  0  0
  4  8  1  0  0  0
  4 22  1  0  0  0
  4 23  1  0  0  0
  5  7  1  0  0  0
  5  9  1  0  0  0
  6 24  1  0  0  0
  6 25  1  0  0  0
  6 43  1  0  0  0
  7 10  1  0  0  0
  7 11  2  0  0  0
  8 26  1  0  0  0
  8 27  1  0  0  0
  9 13  2  0  0  0
  9 14  1  0  0  0
 10 12  2  0  0  0
 11 17  1  0  0  0
 11 28  1  0  0  0
 12 18  1  0  0  0
 12 29  1  0  0  0
 13 19  1  0  0  0
 13 30  1  0  0  0
 14 20  2  0  0  0
 14 31  1  0  0  0
 15 32  1  0  0  0
 15 33  1  0  0  0
 15 34  1  0  0  0
 15 43  1  0  0  0
 16 35  1  0  0  0
 16 36  1  0  0  0
 16 37  1  0  0  0
 16 43  1  0  0  0
 17 18  2  0  0  0
 17 38  1  0  0  0
 18 39  1  0  0  0
 19 21  2  0  0  0
 20 21  1  0  0  0
 20 40  1  0  0  0
 21 41  1  0  0  0
 43 44  1  0  0  0
M  CHG  1  43   1
M  END
> <LID>
L018919

> <PC_CID>
9818211

> <Names>


> <CAS_Numbers>


$$$$
22671430
                    3D
 Structure written by MMmdl.
 80 85  0  0  1  0            999 V2000
   -4.1863   -5.2048   -0.4386 O   0  0  0  0  0  0
    5.1524   -1.5925   -2.9829 O   0  0  0  0  0  0
    6.9787   -2.0878   -1.6960 O   0  0  0  0  0  0
    0.7727    5.9044    1.5221 O   0  0  0  0  0  0
   -5.3062   -3.2009   -0.1355 N   0  0  0  0  0  0
   -6.4369   -4.9692   -0.7629 N   0  0  0  0  0  0
    2.5928    6.1597    0.1758 N   0  0  0  0  0  0
   -4.2229   -2.2930    0.2720 C   0  0  0  0  0  0
   -3.5600   -2.7356    1.5907 C   0  0  0  0  0  0
   -3.1494   -2.1421   -0.8233 C   0  0  0  0  0  0
   -2.4285   -1.7729    1.9872 C   0  0  0  0  0  0
   -2.0284   -1.1933   -0.3678 C   0  0  0  0  0  0
   -0.2422   -0.8471    1.3206 C   0  0  0  0  0  0
    1.0224   -1.1717    0.5001 C   0  0  0  0  0  0
    2.2784   -0.4179    0.9950 C   0  0  1  0  0  0
   -6.6544   -2.8114   -0.2686 C   0  0  0  0  0  0
   -5.2085   -4.5213   -0.4440 C   0  0  0  0  0  0
   -7.3586   -3.9301   -0.6637 C   0  0  0  0  0  0
    3.5622   -0.8765    0.3091 C   0  0  0  0  0  0
    2.1283    1.0998    0.9488 C   0  0  0  0  0  0
   -7.2961   -1.5738   -0.0729 C   0  0  0  0  0  0
   -8.7429   -3.9117   -0.8943 C   0  0  0  0  0  0
    3.6355   -0.9902   -1.1030 C   0  0  0  0  0  0
    4.7030   -1.1830    1.0993 C   0  0  0  0  0  0
    2.3443    1.8626    2.1168 C   0  0  0  0  0  0
    1.7668    1.7590   -0.2470 C   0  0  0  0  0  0
   -8.6924   -1.5226   -0.2974 C   0  0  0  0  0  0
   -9.4085   -2.6785   -0.7037 C   0  0  0  0  0  0
    4.8477   -1.4118   -1.6727 C   0  0  0  0  0  0
    5.9119   -1.6055    0.5016 C   0  0  0  0  0  0
    2.2044    3.2634    2.0896 C   0  0  0  0  0  0
    1.6277    3.1597   -0.2747 C   0  0  0  0  0  0
    5.9484   -1.7099   -0.8975 C   0  0  0  0  0  0
    1.8611    3.9210    0.8901 C   0  0  0  0  0  0
    6.4907   -2.0176   -3.0109 C   0  0  0  0  0  0
    1.7012    5.4131    0.8790 C   0  0  0  0  0  0
    2.4622    7.6237    0.1282 C   0  0  0  0  0  0
    3.8062    5.6379   -0.4760 C   0  0  0  0  0  0
    3.0471    8.2925    1.3821 C   0  0  0  0  0  0
    3.6513    5.5264   -2.0013 C   0  0  0  0  0  0
   -4.6473   -1.3045    0.4428 H   0  0  0  0  0  0
   -3.1512   -3.7424    1.4991 H   0  0  0  0  0  0
   -4.3046   -2.7765    2.3867 H   0  0  0  0  0  0
   -3.6032   -1.7625   -1.7396 H   0  0  0  0  0  0
   -2.7131   -3.1096   -1.0733 H   0  0  0  0  0  0
   -2.8344   -0.7856    2.2142 H   0  0  0  0  0  0
   -1.9568   -2.1388    2.9001 H   0  0  0  0  0  0
   -1.2783   -1.1366   -1.1555 H   0  0  0  0  0  0
   -2.4220   -0.1840   -0.2368 H   0  0  0  0  0  0
   -0.4925    0.2132    1.2600 H   0  0  0  0  0  0
   -0.0204   -1.0490    2.3695 H   0  0  0  0  0  0
    1.2124   -2.2442    0.5624 H   0  0  0  0  0  0
    0.8502   -0.9567   -0.5529 H   0  0  0  0  0  0
    2.3865   -0.6896    2.0463 H   0  0  0  0  0  0
   -6.6787   -5.9104   -1.0357 H   0  0  0  0  0  0
   -6.7583   -0.6904    0.2360 H   0  0  0  0  0  0
   -9.2767   -4.7983   -1.2032 H   0  0  0  0  0  0
    2.7934   -0.7595   -1.7372 H   0  0  0  0  0  0
    4.6561   -1.0922    2.1747 H   0  0  0  0  0  0
    2.6176    1.3777    3.0426 H   0  0  0  0  0  0
    1.5883    1.1964   -1.1508 H   0  0  0  0  0  0
   -9.2205   -0.5908   -0.1577 H   0  0  0  0  0  0
  -10.4741   -2.6160   -0.8693 H   0  0  0  0  0  0
    6.7800   -1.8389    1.1002 H   0  0  0  0  0  0
    2.3698    3.8327    2.9931 H   0  0  0  0  0  0
    1.3285    3.6434   -1.1922 H   0  0  0  0  0  0
    7.0877   -1.3081   -3.5848 H   0  0  0  0  0  0
    6.5522   -3.0017   -3.4767 H   0  0  0  0  0  0
    2.9688    8.0192   -0.7525 H   0  0  0  0  0  0
    1.4153    7.9082    0.0085 H   0  0  0  0  0  0
    4.6381    6.3080   -0.2551 H   0  0  0  0  0  0
    4.1131    4.6761   -0.0648 H   0  0  0  0  0  0
    2.9588    9.3770    1.3171 H   0  0  0  0  0  0
    2.5269    7.9740    2.2858 H   0  0  0  0  0  0
    4.1040    8.0535    1.5023 H   0  0  0  0  0  0
    4.5675    5.1436   -2.4511 H   0  0  0  0  0  0
    2.8445    4.8523   -2.2822 H   0  0  0  0  0  0
    3.4453    6.4947   -2.4571 H   0  0  0  0  0  0
   -1.4148   -1.6586    0.9056 N   0  3  0  0  0  0
   -1.0730   -2.5955    0.7438 H   0  0  0  0  0  0
  1 17  2  0  0  0
  2 29  1  0  0  0
  2 35  1  0  0  0
  3 33  1  0  0  0
  3 35  1  0  0  0
  4 36  2  0  0  0
  5  8  1  0  0  0
  5 16  1  0  0  0
  5 17  1  0  0  0
  6 17  1  0  0  0
  6 18  1  0  0  0
  6 55  1  0  0  0
  7 36  1  0  0  0
  7 37  1  0  0  0
  7 38  1  0  0  0
  8  9  1  0  0  0
  8 10  1  0  0  0
  8 41  1  0  0  0
  9 11  1  0  0  0
  9 42  1  0  0  0
  9 43  1  0  0  0
 10 12  1  0  0  0
 10 44  1  0  0  0
 10 45  1  0  0  0
 11 46  1  0  0  0
 11 47  1  0  0  0
 11 79  1  0  0  0
 12 48  1  0  0  0
 12 49  1  0  0  0
 12 79  1  0  0  0
 13 14  1  0  0  0
 13 50  1  0  0  0
 13 51  1  0  0  0
 13 79  1  0  0  0
 14 15  1  0  0  0
 14 52  1  0  0  0
 14 53  1  0  0  0
 15 19  1  0  0  0
 15 20  1  0  0  0
 15 54  1  0  0  0
 16 18  1  0  0  0
 16 21  2  0  0  0
 18 22  2  0  0  0
 19 23  2  0  0  0
 19 24  1  0  0  0
 20 25  2  0  0  0
 20 26  1  0  0  0
 21 27  1  0  0  0
 21 56  1  0  0  0
 22 28  1  0  0  0
 22 57  1  0  0  0
 23 29  1  0  0  0
 23 58  1  0  0  0
 24 30  2  0  0  0
 24 59  1  0  0  0
 25 31  1  0  0  0
 25 60  1  0  0  0
 26 32  2  0  0  0
 26 61  1  0  0  0
 27 28  2  0  0  0
 27 62  1  0  0  0
 28 63  1  0  0  0
 29 33  2  0  0  0
 30 33  1  0  0  0
 30 64  1  0  0  0
 31 34  2  0  0  0
 31 65  1  0  0  0
 32 34  1  0  0  0
 32 66  1  0  0  0
 34 36  1  0  0  0
 35 67  1  0  0  0
 35 68  1  0  0  0
 37 39  1  0  0  0
 37 69  1  0  0  0
 37 70  1  0  0  0
 38 40  1  0  0  0
 38 71  1  0  0  0
 38 72  1  0  0  0
 39 73  1  0  0  0
 39 74  1  0  0  0
 39 75  1  0  0  0
 40 76  1  0  0  0
 40 77  1  0  0  0
 40 78  1  0  0  0
 79 80  1  0  0  0
M  CHG  1  79   1
M  END
> <LID>
L020890

> <PC_CID>
22671430

> <Names>


> <CAS_Numbers>


$$$$
10277438
                    3D
 Structure written by MMmdl.
 70 74  0  0  1  0            999 V2000
    5.4773   -3.7348    0.4259 O   0  0  0  0  0  0
   -5.9508    0.1020    0.1138 O   0  0  0  0  0  0
    1.4629    2.6603   -1.4476 N   0  0  0  0  0  0
   -5.2988   -2.0807    0.1284 N   0  0  0  0  0  0
    1.4574    0.3158    0.9116 C   0  0  0  0  0  0
    2.8954    0.7785    1.1172 C   0  0  0  0  0  0
    1.3704   -1.2045    0.8420 C   0  0  0  0  0  0
    3.8238    0.1853    0.0457 C   0  0  0  0  0  0
    2.3350   -1.7633   -0.2180 C   0  0  0  0  0  0
    0.3973    1.1533    0.7765 C   0  0  0  0  0  0
    4.7046   -1.8911   -0.9436 C   0  0  0  0  0  0
    0.5650    2.6195    0.7960 C   0  0  0  0  0  0
   -0.9805    0.6543    0.6302 C   0  0  0  0  0  0
    4.8730   -3.3605   -0.7368 C   0  0  0  0  0  0
    1.0825    3.3222   -0.3256 C   0  0  0  0  0  0
    0.1532    3.3229    1.9481 C   0  0  0  0  0  0
   -1.7021    0.9049   -0.5557 C   0  0  0  0  0  0
   -1.6114   -0.0363    1.6874 C   0  0  0  0  0  0
    1.1943    4.7396   -0.2391 C   0  0  0  0  0  0
    4.5302   -4.4623   -1.4709 C   0  0  0  0  0  0
   -3.0264    0.4468   -0.6950 C   0  0  0  0  0  0
   -2.9350   -0.4959    1.5496 C   0  0  0  0  0  0
   -3.6434   -0.2728    0.3496 C   0  0  0  0  0  0
    0.2710    4.7216    2.0148 C   0  0  0  0  0  0
    0.7947    5.4311    0.9216 C   0  0  0  0  0  0
    4.9527   -5.5922   -0.7175 C   0  0  0  0  0  0
    5.5199   -5.0951    0.4213 C   0  0  0  0  0  0
    1.7114    5.4588   -1.3363 C   0  0  0  0  0  0
   -5.0596   -0.7444    0.1929 C   0  0  0  0  0  0
    1.9545    3.3556   -2.4935 C   0  0  0  0  0  0
    2.1007    4.7536   -2.4884 C   0  0  0  0  0  0
   -6.6739   -2.5837   -0.0091 C   0  0  0  0  0  0
   -4.2617   -3.1240    0.0546 C   0  0  0  0  0  0
   -7.1612   -2.5298   -1.4655 C   0  0  0  0  0  0
   -4.0754   -3.8624    1.3899 C   0  0  0  0  0  0
    2.9924    1.8630    1.1239 H   0  0  0  0  0  0
    3.2179    0.4453    2.1043 H   0  0  0  0  0  0
    1.6243   -1.6075    1.8232 H   0  0  0  0  0  0
    0.3643   -1.5549    0.6174 H   0  0  0  0  0  0
    3.5713    0.5942   -0.9341 H   0  0  0  0  0  0
    4.8513    0.4837    0.2578 H   0  0  0  0  0  0
    2.0061   -1.4585   -1.2130 H   0  0  0  0  0  0
    2.2922   -2.8524   -0.1927 H   0  0  0  0  0  0
    4.3941   -1.6868   -1.9694 H   0  0  0  0  0  0
    5.6761   -1.4124   -0.8143 H   0  0  0  0  0  0
   -0.2545    2.7845    2.7915 H   0  0  0  0  0  0
   -1.2395    1.4494   -1.3661 H   0  0  0  0  0  0
   -1.0801   -0.2117    2.6116 H   0  0  0  0  0  0
    4.0352   -4.4567   -2.4310 H   0  0  0  0  0  0
   -3.5648    0.6453   -1.6107 H   0  0  0  0  0  0
   -3.4068   -1.0059    2.3758 H   0  0  0  0  0  0
   -0.0425    5.2497    2.9037 H   0  0  0  0  0  0
    0.8830    6.5066    0.9763 H   0  0  0  0  0  0
    4.8537   -6.6364   -0.9752 H   0  0  0  0  0  0
    5.9788   -5.5460    1.2891 H   0  0  0  0  0  0
    1.8081    6.5343   -1.2997 H   0  0  0  0  0  0
    2.2411    2.7784   -3.3602 H   0  0  0  0  0  0
    2.4996    5.2718   -3.3481 H   0  0  0  0  0  0
   -6.7368   -3.6122    0.3471 H   0  0  0  0  0  0
   -7.3517   -2.0167    0.6315 H   0  0  0  0  0  0
   -4.5468   -3.8475   -0.7104 H   0  0  0  0  0  0
   -3.3042   -2.7293   -0.2857 H   0  0  0  0  0  0
   -8.1736   -2.9256   -1.5479 H   0  0  0  0  0  0
   -7.1761   -1.5081   -1.8457 H   0  0  0  0  0  0
   -6.5207   -3.1214   -2.1201 H   0  0  0  0  0  0
   -3.3063   -4.6294    1.2980 H   0  0  0  0  0  0
   -3.7713   -3.1905    2.1901 H   0  0  0  0  0  0
   -4.9925   -4.3584    1.7072 H   0  0  0  0  0  0
    3.7300   -1.2961    0.0034 N   0  3  1  0  0  0
    4.0004   -1.6220    0.9206 H   0  0  0  0  0  0
  1 14  1  0  0  0
  1 27  1  0  0  0
  2 29  2  0  0  0
  3 15  1  0  0  0
  3 30  2  0  0  0
  4 29  1  0  0  0
  4 32  1  0  0  0
  4 33  1  0  0  0
  5  6  1  0  0  0
  5  7  1  0  0  0
  5 10  2  0  0  0
  6  8  1  0  0  0
  6 36  1  0  0  0
  6 37  1  0  0  0
  7  9  1  0  0  0
  7 38  1  0  0  0
  7 39  1  0  0  0
  8 40  1  0  0  0
  8 41  1  0  0  0
  8 69  1  0  0  0
  9 42  1  0  0  0
  9 43  1  0  0  0
  9 69  1  0  0  0
 10 12  1  0  0  0
 10 13  1  0  0  0
 11 14  1  0  0  0
 11 44  1  0  0  0
 11 45  1  0  0  0
 11 69  1  0  0  0
 12 15  1  0  0  0
 12 16  2  0  0  0
 13 17  2  0  0  0
 13 18  1  0  0  0
 14 20  2  0  0  0
 15 19  2  0  0  0
 16 24  1  0  0  0
 16 46  1  0  0  0
 17 21  1  0  0  0
 17 47  1  0  0  0
 18 22  2  0  0  0
 18 48  1  0  0  0
 19 25  1  0  0  0
 19 28  1  0  0  0
 20 26  1  0  0  0
 20 49  1  0  0  0
 21 23  2  0  0  0
 21 50  1  0  0  0
 22 23  1  0  0  0
 22 51  1  0  0  0
 23 29  1  0  0  0
 24 25  2  0  0  0
 24 52  1  0  0  0
 25 53  1  0  0  0
 26 27  2  0  0  0
 26 54  1  0  0  0
 27 55  1  0  0  0
 28 31  2  0  0  0
 28 56  1  0  0  0
 30 31  1  0  0  0
 30 57  1  0  0  0
 31 58  1  0  0  0
 32 34  1  0  0  0
 32 59  1  0  0  0
 32 60  1  0  0  0
 33 35  1  0  0  0
 33 61  1  0  0  0
 33 62  1  0  0  0
 34 63  1  0  0  0
 34 64  1  0  0  0
 34 65  1  0  0  0
 35 66  1  0  0  0
 35 67  1  0  0  0
 35 68  1  0  0  0
 69 70  1  0  0  0
M  CHG  1  69   1
M  END
> <LID>
L020879

> <PC_CID>
10277438

> <Names>


> <CAS_Numbers>


$$$$
17876678
                    3D
 Structure written by MMmdl.
 59 62  0  0  1  0            999 V2000
    3.2496    1.0471   -2.9071 F   0  0  0  0  0  0
    3.1755   -1.1148   -2.7091 F   0  0  0  0  0  0
    1.4651   -0.0376   -3.4576 F   0  0  0  0  0  0
   -4.5860   -3.6875   -0.8030 O   0  0  0  0  0  0
    4.5626    0.1301    1.4769 O   0  0  0  0  0  0
    5.0075   -0.0059   -0.7574 O   0  0  0  0  0  0
    1.9195    0.3229    1.0576 N   0  0  0  0  0  0
   -1.8952    0.1757    0.7790 C   0  0  2  0  0  0
   -1.8765    0.8173   -0.6566 C   0  0  1  0  0  0
   -3.0977    0.7630    1.5700 C   0  0  0  0  0  0
   -0.5659    0.5375    1.5252 C   0  0  0  0  0  0
   -1.9775    2.3588   -0.6017 C   0  0  0  0  0  0
   -0.6626    0.3715   -1.5221 C   0  0  0  0  0  0
   -3.1952    2.2999    1.5284 C   0  0  0  0  0  0
    0.6178    0.3875    0.6339 C   0  0  0  0  0  0
    0.6184    0.3108   -0.7255 C   0  0  0  0  0  0
   -2.0898   -1.3574    0.6313 C   0  0  0  0  0  0
    1.9796    0.1620   -1.1624 C   0  0  0  0  0  0
   -3.3885    4.2740    0.0398 C   0  0  0  0  0  0
    2.7606    0.1847   -0.0274 C   0  0  0  0  0  0
   -3.2481   -1.8587   -0.0155 C   0  0  0  0  0  0
   -1.1451   -2.3028    1.1108 C   0  0  0  0  0  0
    2.4735    0.0116   -2.5889 C   0  0  0  0  0  0
   -4.8346    4.6952    0.3400 C   0  0  0  0  0  0
   -3.4597   -3.2415   -0.1755 C   0  0  0  0  0  0
   -1.3542   -3.6862    0.9514 C   0  0  0  0  0  0
    4.2098    0.0933    0.1751 C   0  0  0  0  0  0
   -2.5114   -4.1589    0.3095 C   0  0  0  0  0  0
    5.9317    0.0511    1.8384 C   0  0  0  0  0  0
    6.0565    0.1137    3.3626 C   0  0  0  0  0  0
   -2.7692    0.5080   -1.2002 H   0  0  0  0  0  0
   -4.0378    0.3844    1.1706 H   0  0  0  0  0  0
   -3.0638    0.4214    2.6053 H   0  0  0  0  0  0
   -0.5761    1.5772    1.8445 H   0  0  0  0  0  0
   -0.4502   -0.0265    2.4508 H   0  0  0  0  0  0
   -2.0206    2.7445   -1.6213 H   0  0  0  0  0  0
   -1.0879    2.7952   -0.1453 H   0  0  0  0  0  0
   -0.5385    1.0306   -2.3814 H   0  0  0  0  0  0
   -0.8447   -0.6276   -1.9195 H   0  0  0  0  0  0
   -2.3892    2.7655    2.0951 H   0  0  0  0  0  0
   -4.1188    2.5942    2.0256 H   0  0  0  0  0  0
   -2.6916    4.7902    0.7019 H   0  0  0  0  0  0
   -3.1535    4.6060   -0.9724 H   0  0  0  0  0  0
    2.2261    0.3643    2.0196 H   0  0  0  0  0  0
   -3.9960   -1.1840   -0.4034 H   0  0  0  0  0  0
   -0.2343   -2.0031    1.6032 H   0  0  0  0  0  0
   -4.9642    5.7638    0.1665 H   0  0  0  0  0  0
   -5.5414    4.1704   -0.3035 H   0  0  0  0  0  0
   -5.1134    4.5036    1.3757 H   0  0  0  0  0  0
   -0.6208   -4.3871    1.3223 H   0  0  0  0  0  0
   -2.6649   -5.2215    0.1903 H   0  0  0  0  0  0
   -4.6321   -4.6296   -0.8601 H   0  0  0  0  0  0
    6.3606   -0.8800    1.4653 H   0  0  0  0  0  0
    6.4836    0.8747    1.3831 H   0  0  0  0  0  0
    7.1011    0.0547    3.6684 H   0  0  0  0  0  0
    5.6465    1.0458    3.7519 H   0  0  0  0  0  0
    5.5232   -0.7121    3.8342 H   0  0  0  0  0  0
   -3.1887    2.8048    0.1320 N   0  3  1  0  0  0
   -3.9748    2.3806   -0.3398 H   0  0  0  0  0  0
  1 23  1  0  0  0
  2 23  1  0  0  0
  3 23  1  0  0  0
  4 25  1  0  0  0
  4 52  1  0  0  0
  5 27  1  0  0  0
  5 29  1  0  0  0
  6 27  2  0  0  0
  7 15  1  0  0  0
  7 20  1  0  0  0
  7 44  1  0  0  0
  8  9  1  0  0  0
  8 10  1  0  0  0
  8 11  1  0  0  0
  8 17  1  0  0  0
  9 12  1  0  0  0
  9 13  1  0  0  0
  9 31  1  0  0  0
 10 14  1  0  0  0
 10 32  1  0  0  0
 10 33  1  0  0  0
 11 15  1  0  0  0
 11 34  1  0  0  0
 11 35  1  0  0  0
 12 36  1  0  0  0
 12 37  1  0  0  0
 12 58  1  0  0  0
 13 16  1  0  0  0
 13 38  1  0  0  0
 13 39  1  0  0  0
 14 40  1  0  0  0
 14 41  1  0  0  0
 14 58  1  0  0  0
 15 16  2  0  0  0
 16 18  1  0  0  0
 17 21  2  0  0  0
 17 22  1  0  0  0
 18 20  2  0  0  0
 18 23  1  0  0  0
 19 24  1  0  0  0
 19 42  1  0  0  0
 19 43  1  0  0  0
 19 58  1  0  0  0
 20 27  1  0  0  0
 21 25  1  0  0  0
 21 45  1  0  0  0
 22 26  2  0  0  0
 22 46  1  0  0  0
 24 47  1  0  0  0
 24 48  1  0  0  0
 24 49  1  0  0  0
 25 28  2  0  0  0
 26 28  1  0  0  0
 26 50  1  0  0  0
 28 51  1  0  0  0
 29 30  1  0  0  0
 29 53  1  0  0  0
 29 54  1  0  0  0
 30 55  1  0  0  0
 30 56  1  0  0  0
 30 57  1  0  0  0
 58 59  1  0  0  0
M  CHG  1  58   1
M  END
> <LID>
L012494

> <PC_CID>
17876678

> <Names>


> <CAS_Numbers>


$$$$
12988899
                    3D
 Structure written by MMmdl.
 66 69  0  0  1  0            999 V2000
    2.9790    4.1643    0.4012 O   0  0  0  0  0  0
    0.1479   -1.4386   -0.5065 N   0  0  0  0  0  0
    4.7721    2.8576    0.9191 N   0  0  0  0  0  0
   -1.3145   -1.2780   -0.4546 C   0  0  2  0  0  0
   -1.9118   -0.1983   -1.3554 C   0  0  0  0  0  0
   -1.8975   -0.9372    0.9247 C   0  0  0  0  0  0
   -3.3322   -0.0963   -0.8022 C   0  0  0  0  0  0
   -4.3602   -0.9837    1.2993 C   0  0  0  0  0  0
    0.9386   -0.3700   -0.2579 C   0  0  0  0  0  0
    0.6362   -2.6917   -0.6666 C   0  0  0  0  0  0
   -5.6348   -0.1661    1.1885 C   0  0  0  0  0  0
    1.2834    0.5243   -1.2941 C   0  0  0  0  0  0
    1.4401   -0.1476    1.0425 C   0  0  0  0  0  0
    1.6029   -2.9480   -1.6655 C   0  0  0  0  0  0
    0.1975   -3.7589    0.1519 C   0  0  0  0  0  0
   -6.5911   -0.4666    0.1949 C   0  0  0  0  0  0
   -5.8681    0.9016    2.0812 C   0  0  0  0  0  0
    2.1120    1.6319   -1.0317 C   0  0  0  0  0  0
    2.2693    0.9595    1.3053 C   0  0  0  0  0  0
    2.6241    1.8462    0.2652 C   0  0  0  0  0  0
    2.1200   -4.2456   -1.8451 C   0  0  0  0  0  0
    0.7149   -5.0565   -0.0276 C   0  0  0  0  0  0
   -7.7696    0.2980    0.0928 C   0  0  0  0  0  0
   -7.0469    1.6654    1.9784 C   0  0  0  0  0  0
    1.6759   -5.3008   -1.0265 C   0  0  0  0  0  0
   -7.9975    1.3643    0.9839 C   0  0  0  0  0  0
    3.4819    3.0483    0.5369 C   0  0  0  0  0  0
    5.6254    4.0028    1.2682 C   0  0  0  0  0  0
    5.4661    1.5592    0.9319 C   0  0  0  0  0  0
    5.4788    4.3769    2.7498 C   0  0  0  0  0  0
    5.9323    1.1510   -0.4734 C   0  0  0  0  0  0
   -1.7705   -2.2172   -0.7746 H   0  0  0  0  0  0
   -1.4099    0.7606   -1.2258 H   0  0  0  0  0  0
   -1.8843   -0.4614   -2.4133 H   0  0  0  0  0  0
   -1.9719   -1.8191    1.5620 H   0  0  0  0  0  0
   -1.2853   -0.2048    1.4501 H   0  0  0  0  0  0
   -3.8053    0.8577   -1.0371 H   0  0  0  0  0  0
   -3.9429   -0.8881   -1.2397 H   0  0  0  0  0  0
   -4.5022   -1.9710    0.8565 H   0  0  0  0  0  0
   -4.1458   -1.1433    2.3572 H   0  0  0  0  0  0
    0.9100    0.3643   -2.2952 H   0  0  0  0  0  0
    1.1872   -0.8255    1.8448 H   0  0  0  0  0  0
    1.9521   -2.1495   -2.3039 H   0  0  0  0  0  0
   -0.5325   -3.5914    0.9292 H   0  0  0  0  0  0
   -6.4251   -1.2827   -0.4932 H   0  0  0  0  0  0
   -5.1444    1.1394    2.8473 H   0  0  0  0  0  0
    2.3603    2.3125   -1.8335 H   0  0  0  0  0  0
    2.6341    1.1236    2.3091 H   0  0  0  0  0  0
    2.8576   -4.4310   -2.6120 H   0  0  0  0  0  0
    0.3755   -5.8649    0.6032 H   0  0  0  0  0  0
   -8.4994    0.0663   -0.6691 H   0  0  0  0  0  0
   -7.2227    2.4825    2.6627 H   0  0  0  0  0  0
    2.0728   -6.2959   -1.1638 H   0  0  0  0  0  0
   -8.9016    1.9501    0.9055 H   0  0  0  0  0  0
    6.6704    3.7756    1.0527 H   0  0  0  0  0  0
    5.3937    4.8675    0.6439 H   0  0  0  0  0  0
    6.3338    1.6113    1.5910 H   0  0  0  0  0  0
    4.8509    0.7724    1.3633 H   0  0  0  0  0  0
    6.1274    5.2157    3.0029 H   0  0  0  0  0  0
    4.4548    4.6676    2.9863 H   0  0  0  0  0  0
    5.7486    3.5416    3.3965 H   0  0  0  0  0  0
    6.4785    0.2083   -0.4399 H   0  0  0  0  0  0
    5.0905    1.0188   -1.1532 H   0  0  0  0  0  0
    6.5951    1.9027   -0.9029 H   0  0  0  0  0  0
   -3.2101   -0.2984    0.6631 N   0  3  1  0  0  0
   -3.1556    0.6209    1.0782 H   0  0  0  0  0  0
  1 27  2  0  0  0
  2  4  1  0  0  0
  2  9  1  0  0  0
  2 10  1  0  0  0
  3 27  1  0  0  0
  3 28  1  0  0  0
  3 29  1  0  0  0
  4  5  1  0  0  0
  4  6  1  0  0  0
  4 32  1  0  0  0
  5  7  1  0  0  0
  5 33  1  0  0  0
  5 34  1  0  0  0
  6 35  1  0  0  0
  6 36  1  0  0  0
  6 65  1  0  0  0
  7 37  1  0  0  0
  7 38  1  0  0  0
  7 65  1  0  0  0
  8 11  1  0  0  0
  8 39  1  0  0  0
  8 40  1  0  0  0
  8 65  1  0  0  0
  9 12  2  0  0  0
  9 13  1  0  0  0
 10 14  2  0  0  0
 10 15  1  0  0  0
 11 16  2  0  0  0
 11 17  1  0  0  0
 12 18  1  0  0  0
 12 41  1  0  0  0
 13 19  2  0  0  0
 13 42  1  0  0  0
 14 21  1  0  0  0
 14 43  1  0  0  0
 15 22  2  0  0  0
 15 44  1  0  0  0
 16 23  1  0  0  0
 16 45  1  0  0  0
 17 24  2  0  0  0
 17 46  1  0  0  0
 18 20  2  0  0  0
 18 47  1  0  0  0
 19 20  1  0  0  0
 19 48  1  0  0  0
 20 27  1  0  0  0
 21 25  2  0  0  0
 21 49  1  0  0  0
 22 25  1  0  0  0
 22 50  1  0  0  0
 23 26  2  0  0  0
 23 51  1  0  0  0
 24 26  1  0  0  0
 24 52  1  0  0  0
 25 53  1  0  0  0
 26 54  1  0  0  0
 28 30  1  0  0  0
 28 55  1  0  0  0
 28 56  1  0  0  0
 29 31  1  0  0  0
 29 57  1  0  0  0
 29 58  1  0  0  0
 30 59  1  0  0  0
 30 60  1  0  0  0
 30 61  1  0  0  0
 31 62  1  0  0  0
 31 63  1  0  0  0
 31 64  1  0  0  0
 65 66  1  0  0  0
M  CHG  1  65   1
M  END
> <LID>
L018218

> <PC_CID>
12988899

> <Names>


> <CAS_Numbers>


$$$$
10208071
                    3D
 Structure written by MMmdl.
 79 83  0  0  1  0            999 V2000
    5.7797    0.4823    0.3495 O   0  0  0  0  0  0
    5.1158   -1.6781   -0.0187 N   0  0  0  0  0  0
   -1.3907    2.8429   -1.4962 N   0  0  0  0  0  0
   -1.6028    0.7315    1.0800 C   0  0  0  0  0  0
   -3.0561    1.1791    1.1690 C   0  0  0  0  0  0
   -1.4924   -0.7866    1.1316 C   0  0  0  0  0  0
   -3.8978    0.5031    0.0743 C   0  0  0  0  0  0
   -2.3604   -1.4309    0.0381 C   0  0  0  0  0  0
   -0.5481    1.5753    0.9514 C   0  0  0  0  0  0
   -4.6654   -1.6384   -0.8664 C   0  0  0  0  0  0
    0.8241    1.0726    0.7818 C   0  0  0  0  0  0
   -0.7413    3.0324    0.8243 C   0  0  0  0  0  0
   -4.8483   -3.1181   -0.5778 C   0  0  0  0  0  0
   -1.1464    3.6151   -0.4071 C   0  0  0  0  0  0
    6.4994   -2.0595   -0.4305 C   0  0  0  0  0  0
    4.0874   -2.7321    0.2387 C   0  0  0  0  0  0
    1.7670    1.1934    1.8237 C   0  0  0  0  0  0
    1.2223    0.5037   -0.4466 C   0  0  0  0  0  0
   -0.4792    3.8490    1.9451 C   0  0  0  0  0  0
    3.4711    0.1237    0.4340 C   0  0  0  0  0  0
    4.8833   -0.3584    0.2567 C   0  0  0  0  0  0
    3.0836    0.7249    1.6502 C   0  0  0  0  0  0
    2.5380    0.0346   -0.6216 C   0  0  0  0  0  0
   -4.1601   -4.0846   -1.3424 C   0  0  0  0  0  0
   -5.7124   -3.5334    0.4576 C   0  0  0  0  0  0
   -1.2949    5.0305   -0.4659 C   0  0  0  0  0  0
    7.4266   -2.3229    0.7730 C   0  0  0  0  0  0
    6.5946   -3.1679   -1.4938 C   0  0  0  0  0  0
    3.4704   -3.3260   -1.0432 C   0  0  0  0  0  0
    4.5416   -3.8168    1.2312 C   0  0  0  0  0  0
   -0.6310    5.2439    1.8678 C   0  0  0  0  0  0
   -1.0408    5.8358    0.6618 C   0  0  0  0  0  0
   -4.3308   -5.4557   -1.0689 C   0  0  0  0  0  0
   -5.8827   -4.9047    0.7300 C   0  0  0  0  0  0
   -1.7018    5.6316   -1.6749 C   0  0  0  0  0  0
   -5.1915   -5.8659   -0.0326 C   0  0  0  0  0  0
   -1.7775    3.4256   -2.6493 C   0  0  0  0  0  0
   -1.9491    4.8135   -2.7910 C   0  0  0  0  0  0
   -3.1679    2.2602    1.1006 H   0  0  0  0  0  0
   -3.4381    0.9001    2.1517 H   0  0  0  0  0  0
   -0.4656   -1.1376    1.0401 H   0  0  0  0  0  0
   -1.8340   -1.1180    2.1130 H   0  0  0  0  0  0
   -3.5854    0.8614   -0.9081 H   0  0  0  0  0  0
   -4.9428    0.7903    0.1977 H   0  0  0  0  0  0
   -2.3041   -2.5145    0.1410 H   0  0  0  0  0  0
   -1.9579   -1.1854   -0.9462 H   0  0  0  0  0  0
   -5.6521   -1.1734   -0.8437 H   0  0  0  0  0  0
   -4.2779   -1.4916   -1.8760 H   0  0  0  0  0  0
    6.9348   -1.2044   -0.9516 H   0  0  0  0  0  0
    3.2443   -2.2882    0.7650 H   0  0  0  0  0  0
    1.4825    1.6424    2.7638 H   0  0  0  0  0  0
    0.5164    0.4308   -1.2613 H   0  0  0  0  0  0
   -0.1640    3.4030    2.8771 H   0  0  0  0  0  0
    3.7938    0.8223    2.4589 H   0  0  0  0  0  0
    2.8284   -0.3821   -1.5742 H   0  0  0  0  0  0
   -3.4973   -3.7791   -2.1389 H   0  0  0  0  0  0
   -6.2473   -2.8026    1.0468 H   0  0  0  0  0  0
    8.4638   -2.4017    0.4465 H   0  0  0  0  0  0
    7.3795   -1.5122    1.5004 H   0  0  0  0  0  0
    7.1875   -3.2489    1.2918 H   0  0  0  0  0  0
    7.6177   -3.2523   -1.8613 H   0  0  0  0  0  0
    6.3231   -4.1486   -1.1091 H   0  0  0  0  0  0
    5.9673   -2.9439   -2.3568 H   0  0  0  0  0  0
    2.5133   -3.7979   -0.8193 H   0  0  0  0  0  0
    3.2871   -2.5646   -1.7996 H   0  0  0  0  0  0
    4.0933   -4.0967   -1.4922 H   0  0  0  0  0  0
    3.7007   -4.4500    1.5155 H   0  0  0  0  0  0
    5.3035   -4.4753    0.8193 H   0  0  0  0  0  0
    4.9323   -3.3726    2.1471 H   0  0  0  0  0  0
   -0.4319    5.8591    2.7332 H   0  0  0  0  0  0
   -1.1558    6.9088    0.6061 H   0  0  0  0  0  0
   -3.8019   -6.1933   -1.6546 H   0  0  0  0  0  0
   -6.5442   -5.2198    1.5237 H   0  0  0  0  0  0
   -1.8226    6.7027   -1.7496 H   0  0  0  0  0  0
   -5.3225   -6.9175    0.1765 H   0  0  0  0  0  0
   -1.9569    2.7638   -3.4838 H   0  0  0  0  0  0
   -2.2610    5.2396   -3.7333 H   0  0  0  0  0  0
   -3.7758   -0.9774    0.1212 N   0  3  2  0  0  0
   -4.1118   -1.2567    1.0318 H   0  0  0  0  0  0
  1 21  2  0  0  0
  2 15  1  0  0  0
  2 16  1  0  0  0
  2 21  1  0  0  0
  3 14  1  0  0  0
  3 37  2  0  0  0
  4  5  1  0  0  0
  4  6  1  0  0  0
  4  9  2  0  0  0
  5  7  1  0  0  0
  5 39  1  0  0  0
  5 40  1  0  0  0
  6  8  1  0  0  0
  6 41  1  0  0  0
  6 42  1  0  0  0
  7 43  1  0  0  0
  7 44  1  0  0  0
  7 78  1  0  0  0
  8 45  1  0  0  0
  8 46  1  0  0  0
  8 78  1  0  0  0
  9 11  1  0  0  0
  9 12  1  0  0  0
 10 13  1  0  0  0
 10 47  1  0  0  0
 10 48  1  0  0  0
 10 78  1  0  0  0
 11 17  2  0  0  0
 11 18  1  0  0  0
 12 14  1  0  0  0
 12 19  2  0  0  0
 13 24  2  0  0  0
 13 25  1  0  0  0
 14 26  2  0  0  0
 15 27  1  0  0  0
 15 28  1  0  0  0
 15 49  1  0  0  0
 16 29  1  0  0  0
 16 30  1  0  0  0
 16 50  1  0  0  0
 17 22  1  0  0  0
 17 51  1  0  0  0
 18 23  2  0  0  0
 18 52  1  0  0  0
 19 31  1  0  0  0
 19 53  1  0  0  0
 20 21  1  0  0  0
 20 22  2  0  0  0
 20 23  1  0  0  0
 22 54  1  0  0  0
 23 55  1  0  0  0
 24 33  1  0  0  0
 24 56  1  0  0  0
 25 34  2  0  0  0
 25 57  1  0  0  0
 26 32  1  0  0  0
 26 35  1  0  0  0
 27 58  1  0  0  0
 27 59  1  0  0  0
 27 60  1  0  0  0
 28 61  1  0  0  0
 28 62  1  0  0  0
 28 63  1  0  0  0
 29 64  1  0  0  0
 29 65  1  0  0  0
 29 66  1  0  0  0
 30 67  1  0  0  0
 30 68  1  0  0  0
 30 69  1  0  0  0
 31 32  2  0  0  0
 31 70  1  0  0  0
 32 71  1  0  0  0
 33 36  2  0  0  0
 33 72  1  0  0  0
 34 36  1  0  0  0
 34 73  1  0  0  0
 35 38  2  0  0  0
 35 74  1  0  0  0
 36 75  1  0  0  0
 37 38  1  0  0  0
 37 76  1  0  0  0
 38 77  1  0  0  0
 78 79  1  0  0  0
M  CHG  1  78   1
M  END
> <LID>
L021991

> <PC_CID>
10208071

> <Names>


> <CAS_Numbers>


$$$$
10206319
                    3D
 Structure written by MMmdl.
 73 76  0  0  1  0            999 V2000
    6.0732   -8.2192    7.9674 O   0  0  0  0  0  0
    6.3417   -0.8966    3.7187 O   0  0  0  0  0  0
    2.3613   -3.7353    5.3699 N   0  0  0  0  0  0
    4.0521   -8.9527    8.7243 N   0  0  0  0  0  0
    6.4311   -1.5249    1.5626 N   0  0  0  0  0  0
    1.1150   -3.2284    5.9688 C   0  0  0  0  0  0
    0.0495   -4.3288    6.1695 C   0  0  0  0  0  0
    1.3547   -2.4651    7.2881 C   0  0  0  0  0  0
   -1.2314   -3.7551    6.8000 C   0  0  0  0  0  0
    0.0307   -1.9496    7.8844 C   0  0  0  0  0  0
   -0.6143   -3.9315    9.2304 C   0  0  0  0  0  0
    2.9967   -4.7682    5.9684 C   0  0  0  0  0  0
    2.7511   -3.2078    4.1876 C   0  0  0  0  0  0
   -1.7316   -4.8987    9.5788 C   0  0  0  0  0  0
    2.7435   -6.0902    5.5439 C   0  0  0  0  0  0
    3.9026   -4.5436    7.0271 C   0  0  0  0  0  0
    4.0292   -2.6200    4.0656 C   0  0  0  0  0  0
    1.8935   -3.2344    3.0656 C   0  0  0  0  0  0
   -1.6353   -6.2576    9.2088 C   0  0  0  0  0  0
   -2.8686   -4.4444   10.2799 C   0  0  0  0  0  0
    3.3499   -7.1767    6.2018 C   0  0  0  0  0  0
    4.5088   -5.6299    7.6860 C   0  0  0  0  0  0
    4.4590   -2.0675    2.8387 C   0  0  0  0  0  0
    4.2096   -6.9532    7.2992 C   0  0  0  0  0  0
    2.3080   -2.6756    1.8425 C   0  0  0  0  0  0
    3.5832   -2.0903    1.7288 C   0  0  0  0  0  0
   -2.6722   -7.1538    9.5327 C   0  0  0  0  0  0
   -3.9050   -5.3418   10.6031 C   0  0  0  0  0  0
    4.8487   -8.1016    8.0244 C   0  0  0  0  0  0
   -3.8073   -6.6960   10.2291 C   0  0  0  0  0  0
    5.8145   -1.4275    2.7434 C   0  0  0  0  0  0
    4.6284  -10.1154    9.4153 C   0  0  0  0  0  0
    2.6039   -8.7798    8.9344 C   0  0  0  0  0  0
    4.7131  -11.3330    8.4843 C   0  0  0  0  0  0
    2.2995   -7.7385   10.0223 C   0  0  0  0  0  0
    0.6830   -2.5009    5.2796 H   0  0  0  0  0  0
    0.4310   -5.1282    6.8045 H   0  0  0  0  0  0
   -0.1914   -4.7901    5.2113 H   0  0  0  0  0  0
    1.8490   -3.1021    8.0201 H   0  0  0  0  0  0
    2.0280   -1.6255    7.1114 H   0  0  0  0  0  0
   -1.9736   -4.5407    6.9402 H   0  0  0  0  0  0
   -1.6839   -3.0428    6.1086 H   0  0  0  0  0  0
    0.2126   -1.4358    8.8291 H   0  0  0  0  0  0
   -0.4062   -1.2080    7.2142 H   0  0  0  0  0  0
    0.3032   -4.4889    9.0399 H   0  0  0  0  0  0
   -0.4184   -3.3168   10.1101 H   0  0  0  0  0  0
    2.0670   -6.2753    4.7221 H   0  0  0  0  0  0
    4.1262   -3.5364    7.3470 H   0  0  0  0  0  0
    4.6864   -2.5942    4.9234 H   0  0  0  0  0  0
    0.9144   -3.6850    3.1369 H   0  0  0  0  0  0
   -0.7681   -6.6175    8.6741 H   0  0  0  0  0  0
   -2.9505   -3.4076   10.5721 H   0  0  0  0  0  0
    3.1393   -8.1833    5.8702 H   0  0  0  0  0  0
    5.1897   -5.4433    8.5041 H   0  0  0  0  0  0
    1.6453   -2.6940    0.9898 H   0  0  0  0  0  0
    3.8758   -1.6563    0.7837 H   0  0  0  0  0  0
   -2.5967   -8.1929    9.2474 H   0  0  0  0  0  0
   -4.7751   -4.9918   11.1391 H   0  0  0  0  0  0
   -4.6023   -7.3838   10.4777 H   0  0  0  0  0  0
    5.6187   -9.8838    9.8112 H   0  0  0  0  0  0
    4.0307  -10.3685   10.2922 H   0  0  0  0  0  0
    2.0893   -8.5181    8.0124 H   0  0  0  0  0  0
    2.1573   -9.7316    9.2256 H   0  0  0  0  0  0
    7.3540   -1.1318    1.4501 H   0  0  0  0  0  0
    5.9789   -1.9976    0.7942 H   0  0  0  0  0  0
    5.1266  -12.1938    9.0099 H   0  0  0  0  0  0
    3.7281  -11.6139    8.1105 H   0  0  0  0  0  0
    5.3533  -11.1314    7.6249 H   0  0  0  0  0  0
    1.2256   -7.6635   10.1943 H   0  0  0  0  0  0
    2.6561   -6.7471    9.7435 H   0  0  0  0  0  0
    2.7682   -8.0095   10.9687 H   0  0  0  0  0  0
   -0.9508   -3.0486    8.0799 N   0  3  0  0  0  0
   -1.8176   -2.6011    8.3426 H   0  0  0  0  0  0
  1 29  2  0  0  0
  2 31  2  0  0  0
  3  6  1  0  0  0
  3 12  1  0  0  0
  3 13  1  0  0  0
  4 29  1  0  0  0
  4 32  1  0  0  0
  4 33  1  0  0  0
  5 31  1  0  0  0
  5 64  1  0  0  0
  5 65  1  0  0  0
  6  7  1  0  0  0
  6  8  1  0  0  0
  6 36  1  0  0  0
  7  9  1  0  0  0
  7 37  1  0  0  0
  7 38  1  0  0  0
  8 10  1  0  0  0
  8 39  1  0  0  0
  8 40  1  0  0  0
  9 41  1  0  0  0
  9 42  1  0  0  0
  9 72  1  0  0  0
 10 43  1  0  0  0
 10 44  1  0  0  0
 10 72  1  0  0  0
 11 14  1  0  0  0
 11 45  1  0  0  0
 11 46  1  0  0  0
 11 72  1  0  0  0
 12 15  2  0  0  0
 12 16  1  0  0  0
 13 17  1  0  0  0
 13 18  2  0  0  0
 14 19  2  0  0  0
 14 20  1  0  0  0
 15 21  1  0  0  0
 15 47  1  0  0  0
 16 22  2  0  0  0
 16 48  1  0  0  0
 17 23  2  0  0  0
 17 49  1  0  0  0
 18 25  1  0  0  0
 18 50  1  0  0  0
 19 27  1  0  0  0
 19 51  1  0  0  0
 20 28  2  0  0  0
 20 52  1  0  0  0
 21 24  2  0  0  0
 21 53  1  0  0  0
 22 24  1  0  0  0
 22 54  1  0  0  0
 23 26  1  0  0  0
 23 31  1  0  0  0
 24 29  1  0  0  0
 25 26  2  0  0  0
 25 55  1  0  0  0
 26 56  1  0  0  0
 27 30  2  0  0  0
 27 57  1  0  0  0
 28 30  1  0  0  0
 28 58  1  0  0  0
 30 59  1  0  0  0
 32 34  1  0  0  0
 32 60  1  0  0  0
 32 61  1  0  0  0
 33 35  1  0  0  0
 33 62  1  0  0  0
 33 63  1  0  0  0
 34 66  1  0  0  0
 34 67  1  0  0  0
 34 68  1  0  0  0
 35 69  1  0  0  0
 35 70  1  0  0  0
 35 71  1  0  0  0
 72 73  1  0  0  0
M  CHG  1  72   1
M  END
> <LID>
L021993

> <PC_CID>
10206319

> <Names>


> <CAS_Numbers>


$$$$
6284564
                    3D
 Structure written by MMmdl.
 60 66  0  0  1  0            999 V2000
    2.0817   -2.2922   -1.2995 O   0  0  0  0  0  0
   -0.7394    1.2406   -1.3951 O   0  0  0  0  0  0
   -0.4282   -3.3797   -1.5623 O   0  0  0  0  0  0
    3.9623   -3.7094    0.5060 O   0  0  0  0  0  0
    1.2212   -0.1258   -0.8437 C   0  0  2  0  0  0
   -0.0144    0.6374   -0.3306 C   0  0  1  0  0  0
    0.5234    1.7718    0.5849 C   0  0  1  0  0  0
    2.0980    0.8382   -1.6864 C   0  0  0  0  0  0
    0.9576   -1.4473   -1.6249 C   0  0  2  0  0  0
    2.0308   -0.6443    0.3071 C   0  0  0  0  0  0
   -1.0112   -0.3096    0.3684 C   0  0  0  0  0  0
    2.4969    2.1070   -0.9080 C   0  0  0  0  0  0
    1.3419    1.2233    1.7957 C   0  0  0  0  0  0
    2.2076   -0.0153    1.5491 C   0  0  0  0  0  0
    1.6249    4.0137    0.4344 C   0  0  0  0  0  0
    1.7292    5.1668   -0.5471 C   0  0  0  0  0  0
    2.5425   -1.8659   -0.0843 C   0  0  0  0  0  0
   -0.3364   -2.1962   -1.2347 C   0  0  0  0  0  0
   -1.4262   -1.4908   -0.5093 C   0  0  0  0  0  0
    1.6094    6.5913   -0.0562 C   0  0  0  0  0  0
    0.5156    5.9934   -0.9059 C   0  0  0  0  0  0
    3.0678   -0.6773    2.4508 C   0  0  0  0  0  0
    3.4078   -2.5054    0.8260 C   0  0  0  0  0  0
    3.6787   -1.9030    2.0809 C   0  0  0  0  0  0
   -2.6943   -1.9383   -0.6638 C   0  0  0  0  0  0
   -3.9103   -1.4821    0.0304 C   0  0  0  0  0  0
   -5.1029   -1.3414   -0.7108 C   0  0  0  0  0  0
   -3.9239   -1.1843    1.4123 C   0  0  0  0  0  0
   -6.2869   -0.9017   -0.0874 C   0  0  0  0  0  0
   -5.1069   -0.7449    2.0378 C   0  0  0  0  0  0
   -6.2892   -0.6014    1.2877 C   0  0  0  0  0  0
   -0.3299    2.3284    0.9762 H   0  0  0  0  0  0
    1.5640    1.1286   -2.5920 H   0  0  0  0  0  0
    2.9996    0.3304   -2.0320 H   0  0  0  0  0  0
    0.9213   -1.2624   -2.6988 H   0  0  0  0  0  0
   -1.8797    0.2737    0.6712 H   0  0  0  0  0  0
   -0.5883   -0.7210    1.2849 H   0  0  0  0  0  0
    3.2609    1.8755   -0.1652 H   0  0  0  0  0  0
    2.9559    2.8131   -1.5993 H   0  0  0  0  0  0
    0.6367    0.9399    2.5776 H   0  0  0  0  0  0
    1.9604    2.0005    2.2435 H   0  0  0  0  0  0
    2.5569    3.9338    0.9955 H   0  0  0  0  0  0
    0.8446    4.2535    1.1584 H   0  0  0  0  0  0
    2.4624    5.0202   -1.3374 H   0  0  0  0  0  0
    2.2525    7.3381   -0.5178 H   0  0  0  0  0  0
    1.3937    6.7508    0.9986 H   0  0  0  0  0  0
   -0.4265    5.7549   -0.4160 H   0  0  0  0  0  0
    0.4307    6.3403   -1.9339 H   0  0  0  0  0  0
   -1.1375    0.5615   -1.9193 H   0  0  0  0  0  0
    3.2453   -0.2624    3.4322 H   0  0  0  0  0  0
    4.3334   -2.4013    2.7809 H   0  0  0  0  0  0
   -2.8666   -2.7815   -1.3188 H   0  0  0  0  0  0
    3.6908   -4.0172   -0.3456 H   0  0  0  0  0  0
   -5.1129   -1.5674   -1.7673 H   0  0  0  0  0  0
   -3.0299   -1.3043    2.0061 H   0  0  0  0  0  0
   -7.1936   -0.7950   -0.6647 H   0  0  0  0  0  0
   -5.1080   -0.5218    3.0946 H   0  0  0  0  0  0
   -7.1969   -0.2653    1.7669 H   0  0  0  0  0  0
    1.3186    2.7298   -0.2465 N   0  3  2  0  0  0
    0.6832    2.9713   -0.9951 H   0  0  0  0  0  0
  1  9  1  0  0  0
  1 17  1  0  0  0
  2  6  1  0  0  0
  2 49  1  0  0  0
  3 18  2  0  0  0
  4 23  1  0  0  0
  4 53  1  0  0  0
  5  6  1  0  0  0
  5  8  1  0  0  0
  5  9  1  0  0  0
  5 10  1  0  0  0
  6  7  1  0  0  0
  6 11  1  0  0  0
  7 13  1  0  0  0
  7 32  1  0  0  0
  7 59  1  0  0  0
  8 12  1  0  0  0
  8 33  1  0  0  0
  8 34  1  0  0  0
  9 18  1  0  0  0
  9 35  1  0  0  0
 10 14  2  0  0  0
 10 17  1  0  0  0
 11 19  1  0  0  0
 11 36  1  0  0  0
 11 37  1  0  0  0
 12 38  1  0  0  0
 12 39  1  0  0  0
 12 59  1  0  0  0
 13 14  1  0  0  0
 13 40  1  0  0  0
 13 41  1  0  0  0
 14 22  1  0  0  0
 15 16  1  0  0  0
 15 42  1  0  0  0
 15 43  1  0  0  0
 15 59  1  0  0  0
 16 20  1  0  0  0
 16 21  1  0  0  0
 16 44  1  0  0  0
 17 23  2  0  0  0
 18 19  1  0  0  0
 19 25  2  0  0  0
 20 21  1  0  0  0
 20 45  1  0  0  0
 20 46  1  0  0  0
 21 47  1  0  0  0
 21 48  1  0  0  0
 22 24  2  0  0  0
 22 50  1  0  0  0
 23 24  1  0  0  0
 24 51  1  0  0  0
 25 26  1  0  0  0
 25 52  1  0  0  0
 26 27  2  0  0  0
 26 28  1  0  0  0
 27 29  1  0  0  0
 27 54  1  0  0  0
 28 30  2  0  0  0
 28 55  1  0  0  0
 29 31  2  0  0  0
 29 56  1  0  0  0
 30 31  1  0  0  0
 30 57  1  0  0  0
 31 58  1  0  0  0
 59 60  1  0  0  0
M  CHG  1  59   1
M  END
> <LID>
L009752

> <PC_CID>
6284564

> <Names>


> <CAS_Numbers>


$$$$
22729895
                    3D
 Structure written by MMmdl.
 70 75  0  0  1  0            999 V2000
    5.1961    1.1596    0.3404 O   0  0  0  0  0  0
   -1.1577   -4.3979    2.2662 O   0  0  0  0  0  0
    6.7167    0.4228   -1.1428 N   0  0  0  0  0  0
    5.4808   -0.0291   -1.5448 N   0  0  0  0  0  0
   -1.1976   -0.3685   -0.5798 C   0  0  0  0  0  0
   -1.7832    0.2384   -1.8916 C   0  0  0  0  0  0
   -1.9335    0.4090    0.5546 C   0  0  0  0  0  0
   -3.3249    0.1893   -1.9773 C   0  0  0  0  0  0
   -3.4651    0.2943    0.4681 C   0  0  0  0  0  0
    0.3258   -0.1317   -0.5671 C   0  0  0  0  0  0
   -1.4304   -1.8905   -0.4344 C   0  0  0  0  0  0
    7.5043    1.8682    0.7882 C   0  0  0  0  0  0
    8.9779    1.4377    0.8357 C   0  0  0  0  0  0
    7.9801    3.2361    0.2817 C   0  0  0  0  0  0
   -5.4409    0.8716   -0.9216 C   0  0  0  0  0  0
    9.3649    2.9197    0.8553 C   0  0  0  0  0  0
    0.9757    0.6231    0.4408 C   0  0  0  0  0  0
    1.1211   -0.7007   -1.5896 C   0  0  0  0  0  0
   -1.2101   -2.5152    0.8173 C   0  0  0  0  0  0
   -1.8033   -2.7104   -1.5276 C   0  0  0  0  0  0
    6.5073    1.0894   -0.0059 C   0  0  0  0  0  0
   -6.0755    1.8596    0.0413 C   0  0  0  0  0  0
    2.3716    0.8086    0.4174 C   0  0  0  0  0  0
    2.5162   -0.5163   -1.6141 C   0  0  0  0  0  0
    3.1548    0.2419   -0.6109 C   0  0  0  0  0  0
   -1.3915   -3.9006    1.0022 C   0  0  0  0  0  0
   -1.9897   -4.0943   -1.3592 C   0  0  0  0  0  0
    4.6049    0.4283   -0.6435 C   0  0  0  0  0  0
   -1.7923   -4.6903   -0.1015 C   0  0  0  0  0  0
   -6.6902    1.4050    1.2278 C   0  0  0  0  0  0
   -6.0552    3.2402   -0.2495 C   0  0  0  0  0  0
   -7.2746    2.3256    2.1193 C   0  0  0  0  0  0
   -6.6403    4.1599    0.6425 C   0  0  0  0  0  0
   -7.2493    3.7030    1.8272 C   0  0  0  0  0  0
   -1.3241   -5.7923    2.4779 C   0  0  0  0  0  0
   -1.3547   -0.2268   -2.7787 H   0  0  0  0  0  0
   -1.4803    1.2850   -1.9562 H   0  0  0  0  0  0
   -1.6835    1.4696    0.4935 H   0  0  0  0  0  0
   -1.6097    0.0922    1.5449 H   0  0  0  0  0  0
   -3.6441    0.6864   -2.8942 H   0  0  0  0  0  0
   -3.6859   -0.8368   -2.0428 H   0  0  0  0  0  0
   -3.9007    0.8404    1.3047 H   0  0  0  0  0  0
   -3.7837   -0.7441    0.5716 H   0  0  0  0  0  0
    7.1284    1.9702    1.8082 H   0  0  0  0  0  0
    9.2607    0.8797    1.7288 H   0  0  0  0  0  0
    9.3077    0.9335   -0.0741 H   0  0  0  0  0  0
    7.9834    3.3060   -0.8074 H   0  0  0  0  0  0
    7.4792    4.0902    0.7383 H   0  0  0  0  0  0
   -5.7337    1.1599   -1.9324 H   0  0  0  0  0  0
   -5.8404   -0.1307   -0.7580 H   0  0  0  0  0  0
   10.1992    3.1820    0.2040 H   0  0  0  0  0  0
    9.5017    3.3070    1.8661 H   0  0  0  0  0  0
    0.4295    1.0740    1.2541 H   0  0  0  0  0  0
    0.6640   -1.2935   -2.3679 H   0  0  0  0  0  0
   -0.8808   -1.9339    1.6647 H   0  0  0  0  0  0
   -1.9485   -2.3055   -2.5162 H   0  0  0  0  0  0
    2.8327    1.3909    1.2018 H   0  0  0  0  0  0
    3.0924   -0.9652   -2.4102 H   0  0  0  0  0  0
   -2.2805   -4.7039   -2.2022 H   0  0  0  0  0  0
   -1.9437   -5.7552   -0.0123 H   0  0  0  0  0  0
   -6.7137    0.3503    1.4604 H   0  0  0  0  0  0
   -5.5911    3.5993   -1.1566 H   0  0  0  0  0  0
   -7.7430    1.9752    3.0274 H   0  0  0  0  0  0
   -6.6228    5.2164    0.4179 H   0  0  0  0  0  0
   -7.6982    4.4085    2.5109 H   0  0  0  0  0  0
   -1.1014   -6.0272    3.5186 H   0  0  0  0  0  0
   -2.3504   -6.1058    2.2818 H   0  0  0  0  0  0
   -0.6428   -6.3743    1.8558 H   0  0  0  0  0  0
   -3.9604    0.8541   -0.8144 N   0  3  0  0  0  0
   -3.6646    1.8195   -0.8420 H   0  0  0  0  0  0
  1 21  1  0  0  0
  1 28  1  0  0  0
  2 26  1  0  0  0
  2 35  1  0  0  0
  3  4  1  0  0  0
  3 21  2  0  0  0
  4 28  2  0  0  0
  5  6  1  0  0  0
  5  7  1  0  0  0
  5 10  1  0  0  0
  5 11  1  0  0  0
  6  8  1  0  0  0
  6 36  1  0  0  0
  6 37  1  0  0  0
  7  9  1  0  0  0
  7 38  1  0  0  0
  7 39  1  0  0  0
  8 40  1  0  0  0
  8 41  1  0  0  0
  8 69  1  0  0  0
  9 42  1  0  0  0
  9 43  1  0  0  0
  9 69  1  0  0  0
 10 17  2  0  0  0
 10 18  1  0  0  0
 11 19  2  0  0  0
 11 20  1  0  0  0
 12 13  1  0  0  0
 12 14  1  0  0  0
 12 21  1  0  0  0
 12 44  1  0  0  0
 13 16  1  0  0  0
 13 45  1  0  0  0
 13 46  1  0  0  0
 14 16  1  0  0  0
 14 47  1  0  0  0
 14 48  1  0  0  0
 15 22  1  0  0  0
 15 49  1  0  0  0
 15 50  1  0  0  0
 15 69  1  0  0  0
 16 51  1  0  0  0
 16 52  1  0  0  0
 17 23  1  0  0  0
 17 53  1  0  0  0
 18 24  2  0  0  0
 18 54  1  0  0  0
 19 26  1  0  0  0
 19 55  1  0  0  0
 20 27  2  0  0  0
 20 56  1  0  0  0
 22 30  2  0  0  0
 22 31  1  0  0  0
 23 25  2  0  0  0
 23 57  1  0  0  0
 24 25  1  0  0  0
 24 58  1  0  0  0
 25 28  1  0  0  0
 26 29  2  0  0  0
 27 29  1  0  0  0
 27 59  1  0  0  0
 29 60  1  0  0  0
 30 32  1  0  0  0
 30 61  1  0  0  0
 31 33  2  0  0  0
 31 62  1  0  0  0
 32 34  2  0  0  0
 32 63  1  0  0  0
 33 34  1  0  0  0
 33 64  1  0  0  0
 34 65  1  0  0  0
 35 66  1  0  0  0
 35 67  1  0  0  0
 35 68  1  0  0  0
 69 70  1  0  0  0
M  CHG  1  69   1
M  END
> <LID>
L019580

> <PC_CID>
22729895

> <Names>


> <CAS_Numbers>


$$$$
22729894
                    3D
 Structure written by MMmdl.
 65 68  0  0  1  0            999 V2000
    4.6946    3.0779   -0.5897 O   0  0  0  0  0  0
    3.3348   -4.4304   -1.7886 O   0  0  0  0  0  0
    0.2642    1.0449    0.3940 C   0  0  0  0  0  0
   -0.4077    1.0575    1.8009 C   0  0  0  0  0  0
   -0.9378    1.1669   -0.5908 C   0  0  0  0  0  0
   -1.4335   -0.0797    1.9810 C   0  0  0  0  0  0
   -1.9760    0.0383   -0.4186 C   0  0  0  0  0  0
    1.0594   -0.2703    0.1660 C   0  0  0  0  0  0
    1.1798    2.2830    0.2407 C   0  0  0  0  0  0
   -3.5585   -1.0253    1.1746 C   0  0  0  0  0  0
    1.1661   -0.8558   -1.1202 C   0  0  0  0  0  0
    1.7614   -0.8929    1.2278 C   0  0  0  0  0  0
    2.5510    2.1723   -0.1091 C   0  0  0  0  0  0
    0.6559    3.5828    0.4441 C   0  0  0  0  0  0
   -4.8299   -0.7239    0.4007 C   0  0  0  0  0  0
    2.5770   -2.6655   -0.2568 C   0  0  0  0  0  0
    1.9041   -2.0363   -1.3276 C   0  0  0  0  0  0
    2.5003   -2.0727    1.0213 C   0  0  0  0  0  0
    3.3786    3.3053   -0.2483 C   0  0  0  0  0  0
    3.3899   -3.9504   -0.4578 C   0  0  0  0  0  0
    1.4683    4.7226    0.3089 C   0  0  0  0  0  0
    2.8244    4.5896   -0.0349 C   0  0  0  0  0  0
   -5.1174   -1.4151   -0.7959 C   0  0  0  0  0  0
   -5.7324    0.2500    0.8782 C   0  0  0  0  0  0
    4.8803   -3.7026   -0.1632 C   0  0  0  0  0  0
    2.8384   -5.0914    0.4168 C   0  0  0  0  0  0
   -6.2961   -1.1297   -1.5120 C   0  0  0  0  0  0
   -6.9110    0.5345    0.1614 C   0  0  0  0  0  0
   -7.1927   -0.1547   -1.0339 C   0  0  0  0  0  0
    5.5516    4.2007   -0.7376 C   0  0  0  0  0  0
    0.3316    1.0321    2.6000 H   0  0  0  0  0  0
   -0.9417    1.9941    1.9599 H   0  0  0  0  0  0
   -1.4623    2.1088   -0.4294 H   0  0  0  0  0  0
   -0.6026    1.2216   -1.6257 H   0  0  0  0  0  0
   -0.9528   -1.0568    1.9213 H   0  0  0  0  0  0
   -1.8694   -0.0092    2.9783 H   0  0  0  0  0  0
   -1.5472   -0.9333   -0.6648 H   0  0  0  0  0  0
   -2.7875    0.2056   -1.1267 H   0  0  0  0  0  0
   -3.1708   -2.0084    0.9023 H   0  0  0  0  0  0
   -3.8194   -1.0784    2.2327 H   0  0  0  0  0  0
    0.6926   -0.4125   -1.9810 H   0  0  0  0  0  0
    1.7604   -0.4760    2.2218 H   0  0  0  0  0  0
    3.0110    1.2119   -0.2825 H   0  0  0  0  0  0
   -0.3807    3.7289    0.7058 H   0  0  0  0  0  0
    1.9486   -2.4440   -2.3264 H   0  0  0  0  0  0
    3.0181   -2.5176    1.8581 H   0  0  0  0  0  0
    1.0484    5.7048    0.4690 H   0  0  0  0  0  0
    3.4168    5.4868   -0.1298 H   0  0  0  0  0  0
   -4.4349   -2.1641   -1.1705 H   0  0  0  0  0  0
   -5.5246    0.7827    1.7949 H   0  0  0  0  0  0
    5.4744   -4.6039   -0.3194 H   0  0  0  0  0  0
    5.2861   -2.9245   -0.8111 H   0  0  0  0  0  0
    5.0401   -3.3868    0.8679 H   0  0  0  0  0  0
    3.3957   -6.0166    0.2648 H   0  0  0  0  0  0
    2.8983   -4.8527    1.4788 H   0  0  0  0  0  0
    1.7924   -5.2957    0.1847 H   0  0  0  0  0  0
   -6.5130   -1.6590   -2.4283 H   0  0  0  0  0  0
   -7.6000    1.2810    0.5288 H   0  0  0  0  0  0
    3.8566   -5.2160   -1.8470 H   0  0  0  0  0  0
   -8.0968    0.0635   -1.5832 H   0  0  0  0  0  0
    6.5504    3.8576   -1.0068 H   0  0  0  0  0  0
    5.2062    4.8643   -1.5315 H   0  0  0  0  0  0
    5.6363    4.7632    0.1932 H   0  0  0  0  0  0
   -2.5145    0.0093    0.9671 N   0  3  0  0  0  0
   -2.9678    0.8994    1.1171 H   0  0  0  0  0  0
  1 19  1  0  0  0
  1 30  1  0  0  0
  2 20  1  0  0  0
  2 59  1  0  0  0
  3  4  1  0  0  0
  3  5  1  0  0  0
  3  8  1  0  0  0
  3  9  1  0  0  0
  4  6  1  0  0  0
  4 31  1  0  0  0
  4 32  1  0  0  0
  5  7  1  0  0  0
  5 33  1  0  0  0
  5 34  1  0  0  0
  6 35  1  0  0  0
  6 36  1  0  0  0
  6 64  1  0  0  0
  7 37  1  0  0  0
  7 38  1  0  0  0
  7 64  1  0  0  0
  8 11  2  0  0  0
  8 12  1  0  0  0
  9 13  2  0  0  0
  9 14  1  0  0  0
 10 15  1  0  0  0
 10 39  1  0  0  0
 10 40  1  0  0  0
 10 64  1  0  0  0
 11 17  1  0  0  0
 11 41  1  0  0  0
 12 18  2  0  0  0
 12 42  1  0  0  0
 13 19  1  0  0  0
 13 43  1  0  0  0
 14 21  2  0  0  0
 14 44  1  0  0  0
 15 23  2  0  0  0
 15 24  1  0  0  0
 16 17  2  0  0  0
 16 18  1  0  0  0
 16 20  1  0  0  0
 17 45  1  0  0  0
 18 46  1  0  0  0
 19 22  2  0  0  0
 20 25  1  0  0  0
 20 26  1  0  0  0
 21 22  1  0  0  0
 21 47  1  0  0  0
 22 48  1  0  0  0
 23 27  1  0  0  0
 23 49  1  0  0  0
 24 28  2  0  0  0
 24 50  1  0  0  0
 25 51  1  0  0  0
 25 52  1  0  0  0
 25 53  1  0  0  0
 26 54  1  0  0  0
 26 55  1  0  0  0
 26 56  1  0  0  0
 27 29  2  0  0  0
 27 57  1  0  0  0
 28 29  1  0  0  0
 28 58  1  0  0  0
 29 60  1  0  0  0
 30 61  1  0  0  0
 30 62  1  0  0  0
 30 63  1  0  0  0
 64 65  1  0  0  0
M  CHG  1  64   1
M  END
> <LID>
L019577

> <PC_CID>
22729894

> <Names>


> <CAS_Numbers>


$$$$
10073959
                    3D
 Structure written by MMmdl.
 76 79  0  0  1  0            999 V2000
    4.7335    2.5632   -0.7038 O   0  0  0  0  0  0
   -3.2395    1.1583   -1.0455 N   0  0  0  0  0  0
    6.0201    1.0939    0.4690 N   0  0  0  0  0  0
    0.3718   -3.3969   -0.4654 C   0  0  0  0  0  0
   -0.8185   -4.3507   -0.5487 C   0  0  0  0  0  0
    1.6818   -4.1086   -0.7981 C   0  0  0  0  0  0
   -0.8516   -5.0803   -1.9034 C   0  0  0  0  0  0
    1.5929   -4.8327   -2.1514 C   0  0  0  0  0  0
    0.2765   -2.0802   -0.1453 C   0  0  0  0  0  0
   -4.4338    2.0006   -0.9511 C   0  0  0  0  0  0
   -1.0049   -1.4568    0.2281 C   0  0  0  0  0  0
    1.4542   -1.1969   -0.1412 C   0  0  0  0  0  0
   -2.7688    0.1913   -0.2265 C   0  0  0  0  0  0
   -4.5212    2.7586    0.3879 C   0  0  0  0  0  0
   -1.5548   -0.4361   -0.5766 C   0  0  0  0  0  0
   -4.3471    3.0486   -2.0763 C   0  0  0  0  0  0
   -5.6731    1.1187   -1.2373 C   0  0  0  0  0  0
   -1.6731   -1.8379    1.4109 C   0  0  0  0  0  0
   -3.4331   -0.2126    0.9548 C   0  0  0  0  0  0
    2.0795   -0.8293   -1.3521 C   0  0  0  0  0  0
    1.9362   -0.6649    1.0729 C   0  0  0  0  0  0
   -2.8851   -1.2207    1.7699 C   0  0  0  0  0  0
   -5.7478    2.9321    1.0760 C   0  0  0  0  0  0
   -3.3519    3.3313    0.9449 C   0  0  0  0  0  0
    3.6972    0.5347   -0.1281 C   0  0  0  0  0  0
    3.1923    0.0332   -1.3462 C   0  0  0  0  0  0
    3.0488    0.1981    1.0804 C   0  0  0  0  0  0
   -5.7963    3.6388    2.2934 C   0  0  0  0  0  0
   -3.3999    4.0375    2.1618 C   0  0  0  0  0  0
    4.8665    1.4768   -0.1391 C   0  0  0  0  0  0
   -4.6229    4.1901    2.8389 C   0  0  0  0  0  0
    7.1644    2.0136    0.5477 C   0  0  0  0  0  0
    6.2867   -0.2515    1.0045 C   0  0  0  0  0  0
    7.0747    2.9111    1.7898 C   0  0  0  0  0  0
    6.6607   -1.2418   -0.1084 C   0  0  0  0  0  0
   -0.7309   -5.0766    0.2607 H   0  0  0  0  0  0
   -1.7710   -3.8436   -0.4043 H   0  0  0  0  0  0
    2.5410   -3.4403   -0.7956 H   0  0  0  0  0  0
    1.8741   -4.8369   -0.0092 H   0  0  0  0  0  0
   -1.0655   -4.3715   -2.7047 H   0  0  0  0  0  0
   -1.6511   -5.8216   -1.9141 H   0  0  0  0  0  0
    2.5049   -5.4006   -2.3373 H   0  0  0  0  0  0
    1.4991   -4.1070   -2.9606 H   0  0  0  0  0  0
   -2.6655    1.3527   -1.8530 H   0  0  0  0  0  0
   -1.0349   -0.1344   -1.4748 H   0  0  0  0  0  0
   -5.2188    3.7043   -2.0741 H   0  0  0  0  0  0
   -3.4648    3.6810   -1.9695 H   0  0  0  0  0  0
   -4.2947    2.5790   -3.0595 H   0  0  0  0  0  0
   -6.5791    1.7138   -1.3538 H   0  0  0  0  0  0
   -5.5497    0.5609   -2.1665 H   0  0  0  0  0  0
   -5.8555    0.3898   -0.4484 H   0  0  0  0  0  0
   -1.2561   -2.6061    2.0459 H   0  0  0  0  0  0
   -4.3615    0.2441    1.2596 H   0  0  0  0  0  0
    1.7045   -1.2093   -2.2913 H   0  0  0  0  0  0
    1.4512   -0.9176    2.0047 H   0  0  0  0  0  0
   -3.3947   -1.5179    2.6745 H   0  0  0  0  0  0
   -6.6712    2.5295    0.6910 H   0  0  0  0  0  0
   -2.4036    3.2301    0.4378 H   0  0  0  0  0  0
    3.6601    0.3054   -2.2815 H   0  0  0  0  0  0
    3.4016    0.6017    2.0187 H   0  0  0  0  0  0
   -6.7377    3.7592    2.8089 H   0  0  0  0  0  0
   -2.4973    4.4638    2.5742 H   0  0  0  0  0  0
   -4.6617    4.7321    3.7723 H   0  0  0  0  0  0
    8.0999    1.4528    0.5717 H   0  0  0  0  0  0
    7.2327    2.6306   -0.3500 H   0  0  0  0  0  0
    7.1035   -0.2061    1.7262 H   0  0  0  0  0  0
    5.4460   -0.6356    1.5781 H   0  0  0  0  0  0
    7.9351    3.5778    1.8483 H   0  0  0  0  0  0
    6.1774    3.5304    1.7678 H   0  0  0  0  0  0
    7.0511    2.3183    2.7046 H   0  0  0  0  0  0
    6.8945   -2.2211    0.3094 H   0  0  0  0  0  0
    5.8450   -1.3741   -0.8192 H   0  0  0  0  0  0
    7.5358   -0.9004   -0.6621 H   0  0  0  0  0  0
    0.4353   -5.7522   -2.1854 N   0  3  0  0  0  0
    0.3868   -6.1871   -3.0960 H   0  0  0  0  0  0
    0.5786   -6.4711   -1.4904 H   0  0  0  0  0  0
  1 30  2  0  0  0
  2 10  1  0  0  0
  2 13  1  0  0  0
  2 44  1  0  0  0
  3 30  1  0  0  0
  3 32  1  0  0  0
  3 33  1  0  0  0
  4  5  1  0  0  0
  4  6  1  0  0  0
  4  9  2  0  0  0
  5  7  1  0  0  0
  5 36  1  0  0  0
  5 37  1  0  0  0
  6  8  1  0  0  0
  6 38  1  0  0  0
  6 39  1  0  0  0
  7 40  1  0  0  0
  7 41  1  0  0  0
  7 74  1  0  0  0
  8 42  1  0  0  0
  8 43  1  0  0  0
  8 74  1  0  0  0
  9 11  1  0  0  0
  9 12  1  0  0  0
 10 14  1  0  0  0
 10 16  1  0  0  0
 10 17  1  0  0  0
 11 15  2  0  0  0
 11 18  1  0  0  0
 12 20  2  0  0  0
 12 21  1  0  0  0
 13 15  1  0  0  0
 13 19  2  0  0  0
 14 23  2  0  0  0
 14 24  1  0  0  0
 15 45  1  0  0  0
 16 46  1  0  0  0
 16 47  1  0  0  0
 16 48  1  0  0  0
 17 49  1  0  0  0
 17 50  1  0  0  0
 17 51  1  0  0  0
 18 22  2  0  0  0
 18 52  1  0  0  0
 19 22  1  0  0  0
 19 53  1  0  0  0
 20 26  1  0  0  0
 20 54  1  0  0  0
 21 27  2  0  0  0
 21 55  1  0  0  0
 22 56  1  0  0  0
 23 28  1  0  0  0
 23 57  1  0  0  0
 24 29  2  0  0  0
 24 58  1  0  0  0
 25 26  2  0  0  0
 25 27  1  0  0  0
 25 30  1  0  0  0
 26 59  1  0  0  0
 27 60  1  0  0  0
 28 31  2  0  0  0
 28 61  1  0  0  0
 29 31  1  0  0  0
 29 62  1  0  0  0
 31 63  1  0  0  0
 32 34  1  0  0  0
 32 64  1  0  0  0
 32 65  1  0  0  0
 33 35  1  0  0  0
 33 66  1  0  0  0
 33 67  1  0  0  0
 34 68  1  0  0  0
 34 69  1  0  0  0
 34 70  1  0  0  0
 35 71  1  0  0  0
 35 72  1  0  0  0
 35 73  1  0  0  0
 74 75  1  0  0  0
 74 76  1  0  0  0
M  CHG  1  74   1
M  END
> <LID>
L022982

> <PC_CID>
10073959

> <Names>


> <CAS_Numbers>


$$$$
9890150
                    3D
 Structure written by MMmdl.
 70 73  0  0  1  0            999 V2000
    3.7403    3.5066   -0.8271 O   0  0  0  0  0  0
    5.5418    2.3280   -0.0823 N   0  0  0  0  0  0
   -3.6411    0.4242    0.6031 N   0  0  0  0  0  0
    0.8698   -3.2490    0.0222 C   0  0  0  0  0  0
   -0.0859   -4.4334    0.1536 C   0  0  0  0  0  0
    2.1792   -3.6602   -0.6486 C   0  0  0  0  0  0
   -0.2925   -5.1330   -1.2016 C   0  0  0  0  0  0
    1.9190   -4.3663   -1.9893 C   0  0  0  0  0  0
    0.5875   -1.9878    0.4399 C   0  0  0  0  0  0
    1.5269   -0.8740    0.2300 C   0  0  0  0  0  0
   -0.6676   -1.6573    1.1369 C   0  0  0  0  0  0
   -1.5907   -0.7683    0.5457 C   0  0  0  0  0  0
    1.7552   -0.3628   -1.0658 C   0  0  0  0  0  0
    2.1680   -0.2707    1.3321 C   0  0  0  0  0  0
   -0.9420   -2.1874    2.4160 C   0  0  0  0  0  0
   -2.7870   -0.4235    1.2081 C   0  0  0  0  0  0
    3.3075    1.2952   -0.1619 C   0  0  0  0  0  0
    2.6376    0.7168   -1.2605 C   0  0  0  0  0  0
    3.0506    0.8093    1.1389 C   0  0  0  0  0  0
   -2.1337   -1.8494    3.0838 C   0  0  0  0  0  0
   -3.0557   -0.9719    2.4824 C   0  0  0  0  0  0
    4.2231    2.4652   -0.3809 C   0  0  0  0  0  0
   -4.9182    0.8975    1.1115 C   0  0  0  0  0  0
    6.4597    3.4695   -0.2099 C   0  0  0  0  0  0
    6.1973    1.0624    0.2873 C   0  0  0  0  0  0
   -5.6110    1.8711    0.1782 C   0  0  0  0  0  0
    6.4890    4.3082    1.0755 C   0  0  0  0  0  0
    6.4870    0.1920   -0.9445 C   0  0  0  0  0  0
   -6.8966    1.5788   -0.3242 C   0  0  0  0  0  0
   -4.9766    3.0776   -0.1877 C   0  0  0  0  0  0
   -7.5411    2.4846   -1.1895 C   0  0  0  0  0  0
   -5.6216    3.9829   -1.0530 C   0  0  0  0  0  0
   -6.9037    3.6863   -1.5544 C   0  0  0  0  0  0
    0.3385   -5.1359    0.8719 H   0  0  0  0  0  0
   -1.0589   -4.1433    0.5464 H   0  0  0  0  0  0
    2.8595   -2.8241   -0.8006 H   0  0  0  0  0  0
    2.6984   -4.3424    0.0257 H   0  0  0  0  0  0
   -0.9033   -6.0274   -1.0762 H   0  0  0  0  0  0
   -0.8314   -4.4741   -1.8842 H   0  0  0  0  0  0
    1.4890   -3.6652   -2.7061 H   0  0  0  0  0  0
    2.8561   -4.7239   -2.4167 H   0  0  0  0  0  0
   -1.3758   -0.3502   -0.4275 H   0  0  0  0  0  0
    1.2509   -0.7991   -1.9157 H   0  0  0  0  0  0
    1.9827   -0.6356    2.3319 H   0  0  0  0  0  0
   -0.2371   -2.8565    2.8878 H   0  0  0  0  0  0
    2.8018    1.0971   -2.2586 H   0  0  0  0  0  0
    3.5287    1.2641    1.9946 H   0  0  0  0  0  0
   -2.3402   -2.2615    4.0606 H   0  0  0  0  0  0
   -3.9632   -0.7255    3.0134 H   0  0  0  0  0  0
   -3.3789    0.7711   -0.3085 H   0  0  0  0  0  0
   -5.5673    0.0405    1.2955 H   0  0  0  0  0  0
   -4.7609    1.3915    2.0710 H   0  0  0  0  0  0
    7.4677    3.1210   -0.4392 H   0  0  0  0  0  0
    6.1837    4.1003   -1.0566 H   0  0  0  0  0  0
    7.1366    1.2700    0.8020 H   0  0  0  0  0  0
    5.6152    0.4990    1.0133 H   0  0  0  0  0  0
    7.1841    5.1422    0.9774 H   0  0  0  0  0  0
    5.5058    4.7221    1.3017 H   0  0  0  0  0  0
    6.8063    3.7101    1.9301 H   0  0  0  0  0  0
    7.0085   -0.7212   -0.6574 H   0  0  0  0  0  0
    5.5691   -0.1004   -1.4545 H   0  0  0  0  0  0
    7.1153    0.7206   -1.6619 H   0  0  0  0  0  0
   -7.3925    0.6593   -0.0496 H   0  0  0  0  0  0
   -3.9940    3.3113    0.1957 H   0  0  0  0  0  0
   -8.5248    2.2574   -1.5733 H   0  0  0  0  0  0
   -5.1330    4.9051   -1.3312 H   0  0  0  0  0  0
   -7.3984    4.3806   -2.2176 H   0  0  0  0  0  0
    0.9987   -5.5108   -1.8156 N   0  3  0  0  0  0
    0.8236   -5.9321   -2.7170 H   0  0  0  0  0  0
    1.4471   -6.1931   -1.2208 H   0  0  0  0  0  0
  1 22  2  0  0  0
  2 22  1  0  0  0
  2 24  1  0  0  0
  2 25  1  0  0  0
  3 16  1  0  0  0
  3 23  1  0  0  0
  3 50  1  0  0  0
  4  5  1  0  0  0
  4  6  1  0  0  0
  4  9  2  0  0  0
  5  7  1  0  0  0
  5 34  1  0  0  0
  5 35  1  0  0  0
  6  8  1  0  0  0
  6 36  1  0  0  0
  6 37  1  0  0  0
  7 38  1  0  0  0
  7 39  1  0  0  0
  7 68  1  0  0  0
  8 40  1  0  0  0
  8 41  1  0  0  0
  8 68  1  0  0  0
  9 10  1  0  0  0
  9 11  1  0  0  0
 10 13  2  0  0  0
 10 14  1  0  0  0
 11 12  2  0  0  0
 11 15  1  0  0  0
 12 16  1  0  0  0
 12 42  1  0  0  0
 13 18  1  0  0  0
 13 43  1  0  0  0
 14 19  2  0  0  0
 14 44  1  0  0  0
 15 20  2  0  0  0
 15 45  1  0  0  0
 16 21  2  0  0  0
 17 18  2  0  0  0
 17 19  1  0  0  0
 17 22  1  0  0  0
 18 46  1  0  0  0
 19 47  1  0  0  0
 20 21  1  0  0  0
 20 48  1  0  0  0
 21 49  1  0  0  0
 23 26  1  0  0  0
 23 51  1  0  0  0
 23 52  1  0  0  0
 24 27  1  0  0  0
 24 53  1  0  0  0
 24 54  1  0  0  0
 25 28  1  0  0  0
 25 55  1  0  0  0
 25 56  1  0  0  0
 26 29  2  0  0  0
 26 30  1  0  0  0
 27 57  1  0  0  0
 27 58  1  0  0  0
 27 59  1  0  0  0
 28 60  1  0  0  0
 28 61  1  0  0  0
 28 62  1  0  0  0
 29 31  1  0  0  0
 29 63  1  0  0  0
 30 32  2  0  0  0
 30 64  1  0  0  0
 31 33  2  0  0  0
 31 65  1  0  0  0
 32 33  1  0  0  0
 32 66  1  0  0  0
 33 67  1  0  0  0
 68 69  1  0  0  0
 68 70  1  0  0  0
M  CHG  1  68   1
M  END
> <LID>
L022974

> <PC_CID>
9890150

> <Names>


> <CAS_Numbers>


$$$$
11236730
                    3D
 Structure written by MMmdl.
 72 75  0  0  1  0            999 V2000
    3.1727   -0.6072   -0.2230 O   0  0  0  0  0  0
   -4.4652   -3.1553    0.8028 O   0  0  0  0  0  0
   -6.0552   -1.5968    1.2848 N   0  0  0  0  0  0
   -1.1948    3.0830   -1.4316 C   0  0  0  0  0  0
   -0.1805    4.1228   -1.9039 C   0  0  0  0  0  0
   -2.5822    3.3535   -2.0103 C   0  0  0  0  0  0
   -0.1836    4.2439   -3.4381 C   0  0  0  0  0  0
   -2.5301    3.4807   -3.5416 C   0  0  0  0  0  0
   -0.8984    2.0435   -0.6092 C   0  0  0  0  0  0
   -1.9075    1.0385   -0.2370 C   0  0  0  0  0  0
    0.4445    1.8625   -0.0316 C   0  0  0  0  0  0
   -2.3797    0.1095   -1.1891 C   0  0  0  0  0  0
   -2.3735    0.9611    1.0920 C   0  0  0  0  0  0
    1.2151    0.7316   -0.3749 C   0  0  0  0  0  0
    0.9581    2.7891    0.9000 C   0  0  0  0  0  0
   -3.8239   -0.9160    0.4957 C   0  0  0  0  0  0
   -3.3298   -0.8636   -0.8246 C   0  0  0  0  0  0
   -3.3234   -0.0117    1.4581 C   0  0  0  0  0  0
    2.4945    0.5233    0.1797 C   0  0  0  0  0  0
    2.2332    2.5954    1.4617 C   0  0  0  0  0  0
    3.0009    1.4708    1.1042 C   0  0  0  0  0  0
   -4.8156   -1.9770    0.8773 C   0  0  0  0  0  0
   -7.0324   -2.5973    1.7384 C   0  0  0  0  0  0
   -6.5784   -0.2216    1.2285 C   0  0  0  0  0  0
    4.4618   -0.8491    0.3238 C   0  0  0  0  0  0
    5.0072   -2.1548   -0.2662 C   0  0  0  0  0  0
   -6.8776   -2.8888    3.2376 C   0  0  0  0  0  0
   -7.0372    0.1539   -0.1883 C   0  0  0  0  0  0
    6.3874   -2.4919    0.2653 C   0  0  0  0  0  0
    6.5264   -3.2702    1.4339 C   0  0  0  0  0  0
    7.5383   -2.0240   -0.4033 C   0  0  0  0  0  0
    7.8081   -3.5798    1.9294 C   0  0  0  0  0  0
    8.8198   -2.3340    0.0927 C   0  0  0  0  0  0
    8.9549   -3.1121    1.2589 C   0  0  0  0  0  0
   -0.4424    5.0823   -1.4563 H   0  0  0  0  0  0
    0.8327    3.8975   -1.5750 H   0  0  0  0  0  0
   -3.3141    2.5980   -1.7299 H   0  0  0  0  0  0
   -2.9454    4.2881   -1.5810 H   0  0  0  0  0  0
    0.4780    5.0505   -3.7552 H   0  0  0  0  0  0
    0.1984    3.3256   -3.8864 H   0  0  0  0  0  0
   -2.2632    2.5223   -3.9894 H   0  0  0  0  0  0
   -3.5111    3.7522   -3.9324 H   0  0  0  0  0  0
   -2.0119    0.1415   -2.2043 H   0  0  0  0  0  0
   -2.0013    1.6497    1.8367 H   0  0  0  0  0  0
    0.8218    0.0109   -1.0773 H   0  0  0  0  0  0
    0.3738    3.6519    1.1852 H   0  0  0  0  0  0
   -3.6817   -1.5678   -1.5649 H   0  0  0  0  0  0
   -3.6656   -0.0612    2.4819 H   0  0  0  0  0  0
    2.6232    3.3102    2.1713 H   0  0  0  0  0  0
    3.9740    1.3562    1.5567 H   0  0  0  0  0  0
   -8.0479   -2.2523    1.5385 H   0  0  0  0  0  0
   -6.9361   -3.5238    1.1698 H   0  0  0  0  0  0
   -7.4227   -0.1199    1.9118 H   0  0  0  0  0  0
   -5.8542    0.5049    1.5906 H   0  0  0  0  0  0
    5.1354   -0.0256    0.0806 H   0  0  0  0  0  0
    4.4013   -0.9331    1.4102 H   0  0  0  0  0  0
    4.3262   -2.9766   -0.0412 H   0  0  0  0  0  0
    5.0501   -2.0814   -1.3536 H   0  0  0  0  0  0
   -7.6165   -3.6189    3.5680 H   0  0  0  0  0  0
   -5.8900   -3.2925    3.4633 H   0  0  0  0  0  0
   -7.0148   -1.9850    3.8319 H   0  0  0  0  0  0
   -7.4590    1.1589   -0.2034 H   0  0  0  0  0  0
   -6.2092    0.1344   -0.8971 H   0  0  0  0  0  0
   -7.8037   -0.5324   -0.5494 H   0  0  0  0  0  0
    5.6508   -3.6306    1.9541 H   0  0  0  0  0  0
    7.4418   -1.4252   -1.2973 H   0  0  0  0  0  0
    7.9114   -4.1759    2.8242 H   0  0  0  0  0  0
    9.6991   -1.9745   -0.4212 H   0  0  0  0  0  0
    9.9376   -3.3496    1.6391 H   0  0  0  0  0  0
   -1.5447    4.5027   -3.9555 N   0  3  0  0  0  0
   -1.5118    4.5386   -4.9646 H   0  0  0  0  0  0
   -1.8521    5.4005   -3.6093 H   0  0  0  0  0  0
  1 19  1  0  0  0
  1 25  1  0  0  0
  2 22  2  0  0  0
  3 22  1  0  0  0
  3 23  1  0  0  0
  3 24  1  0  0  0
  4  5  1  0  0  0
  4  6  1  0  0  0
  4  9  2  0  0  0
  5  7  1  0  0  0
  5 35  1  0  0  0
  5 36  1  0  0  0
  6  8  1  0  0  0
  6 37  1  0  0  0
  6 38  1  0  0  0
  7 39  1  0  0  0
  7 40  1  0  0  0
  7 70  1  0  0  0
  8 41  1  0  0  0
  8 42  1  0  0  0
  8 70  1  0  0  0
  9 10  1  0  0  0
  9 11  1  0  0  0
 10 12  2  0  0  0
 10 13  1  0  0  0
 11 14  2  0  0  0
 11 15  1  0  0  0
 12 17  1  0  0  0
 12 43  1  0  0  0
 13 18  2  0  0  0
 13 44  1  0  0  0
 14 19  1  0  0  0
 14 45  1  0  0  0
 15 20  2  0  0  0
 15 46  1  0  0  0
 16 17  2  0  0  0
 16 18  1  0  0  0
 16 22  1  0  0  0
 17 47  1  0  0  0
 18 48  1  0  0  0
 19 21  2  0  0  0
 20 21  1  0  0  0
 20 49  1  0  0  0
 21 50  1  0  0  0
 23 27  1  0  0  0
 23 51  1  0  0  0
 23 52  1  0  0  0
 24 28  1  0  0  0
 24 53  1  0  0  0
 24 54  1  0  0  0
 25 26  1  0  0  0
 25 55  1  0  0  0
 25 56  1  0  0  0
 26 29  1  0  0  0
 26 57  1  0  0  0
 26 58  1  0  0  0
 27 59  1  0  0  0
 27 60  1  0  0  0
 27 61  1  0  0  0
 28 62  1  0  0  0
 28 63  1  0  0  0
 28 64  1  0  0  0
 29 30  2  0  0  0
 29 31  1  0  0  0
 30 32  1  0  0  0
 30 65  1  0  0  0
 31 33  2  0  0  0
 31 66  1  0  0  0
 32 34  2  0  0  0
 32 67  1  0  0  0
 33 34  1  0  0  0
 33 68  1  0  0  0
 34 69  1  0  0  0
 70 71  1  0  0  0
 70 72  1  0  0  0
M  CHG  1  70   1
M  END
> <LID>
L023451

> <PC_CID>
11236730

> <Names>


> <CAS_Numbers>


$$$$
44211129
                    3D
 Structure written by MMmdl.
 54 60  0  0  1  0            999 V2000
    0.6304    1.8617   -1.5614 O   0  0  0  0  0  0
   -0.7125   -2.3599   -0.6644 O   0  0  0  0  0  0
    2.9754    0.1302   -1.4423 O   0  0  0  0  0  0
    0.6805    4.5595   -0.3540 O   0  0  0  0  0  0
   -0.7653    0.0852   -0.7628 C   0  0  1  0  0  0
   -0.7122   -1.1865    0.1382 C   0  0  1  0  0  0
   -2.0224   -1.1720    0.9752 C   0  0  1  0  0  0
    0.5225    0.4268   -1.5808 C   0  0  2  0  0  0
   -2.0027    0.0182   -1.6948 C   0  0  0  0  0  0
   -0.8501    1.3007    0.1167 C   0  0  0  0  0  0
    0.5829   -1.2974    1.0004 C   0  0  0  0  0  0
   -2.1358    0.0959    1.8777 C   0  0  0  0  0  0
   -3.3171   -0.1916   -0.9219 C   0  0  0  0  0  0
   -1.5543    1.4014    1.3283 C   0  0  0  0  0  0
    1.7407   -0.1184   -0.9096 C   0  0  0  0  0  0
    1.7975   -0.8788    0.2274 C   0  0  0  0  0  0
   -0.0669    2.2813   -0.4642 C   0  0  0  0  0  0
   -4.4683   -1.6508    0.7325 C   0  0  0  0  0  0
    3.1906   -1.1374    0.4534 C   0  0  0  0  0  0
   -1.5229    2.6665    1.9522 C   0  0  0  0  0  0
   -0.0574    3.5397    0.1703 C   0  0  0  0  0  0
    3.8830   -0.4924   -0.6071 C   0  0  0  0  0  0
   -0.7972    3.7327    1.3637 C   0  0  0  0  0  0
   -5.4270   -2.3352   -0.2216 C   0  0  0  0  0  0
    3.9739   -1.8291    1.4066 C   0  0  0  0  0  0
    5.2815   -0.5184   -0.7364 C   0  0  0  0  0  0
    5.3810   -1.8670    1.2949 C   0  0  0  0  0  0
    6.0346   -1.2147    0.2281 C   0  0  0  0  0  0
   -6.6320   -1.8540   -0.5623 C   0  0  0  0  0  0
   -2.0267   -2.0510    1.6218 H   0  0  0  0  0  0
    0.4689    0.0508   -2.6031 H   0  0  0  0  0  0
   -1.8788   -0.7946   -2.4114 H   0  0  0  0  0  0
   -2.0771    0.9273   -2.2932 H   0  0  0  0  0  0
    0.7031   -2.3067    1.3968 H   0  0  0  0  0  0
    0.5064   -0.6524    1.8749 H   0  0  0  0  0  0
   -1.5950   -0.1005    2.8038 H   0  0  0  0  0  0
   -3.1636    0.2758    2.1902 H   0  0  0  0  0  0
   -3.6108    0.7229   -0.4059 H   0  0  0  0  0  0
   -4.1139   -0.4032   -1.6352 H   0  0  0  0  0  0
   -0.5036   -3.1035   -0.1187 H   0  0  0  0  0  0
   -4.2855   -2.3405    1.5573 H   0  0  0  0  0  0
   -4.9296   -0.7579    1.1568 H   0  0  0  0  0  0
   -2.0316    2.8178    2.8929 H   0  0  0  0  0  0
   -0.7781    4.6954    1.8532 H   0  0  0  0  0  0
   -5.0970   -3.2733   -0.6445 H   0  0  0  0  0  0
    3.4891   -2.3334    2.2293 H   0  0  0  0  0  0
    5.7668   -0.0141   -1.5588 H   0  0  0  0  0  0
    1.1426    4.3040   -1.1381 H   0  0  0  0  0  0
    5.9628   -2.4001    2.0327 H   0  0  0  0  0  0
    7.1116   -1.2496    0.1515 H   0  0  0  0  0  0
   -7.2698   -2.3911   -1.2492 H   0  0  0  0  0  0
   -6.9992   -0.9200   -0.1623 H   0  0  0  0  0  0
   -3.1934   -1.3092    0.0517 N   0  3  2  0  0  0
   -2.9640   -2.1214   -0.5046 H   0  0  0  0  0  0
  1  8  1  0  0  0
  1 17  1  0  0  0
  2  6  1  0  0  0
  2 40  1  0  0  0
  3 15  1  0  0  0
  3 22  1  0  0  0
  4 21  1  0  0  0
  4 48  1  0  0  0
  5  6  1  0  0  0
  5  8  1  0  0  0
  5  9  1  0  0  0
  5 10  1  0  0  0
  6  7  1  0  0  0
  6 11  1  0  0  0
  7 12  1  0  0  0
  7 30  1  0  0  0
  7 53  1  0  0  0
  8 15  1  0  0  0
  8 31  1  0  0  0
  9 13  1  0  0  0
  9 32  1  0  0  0
  9 33  1  0  0  0
 10 14  2  0  0  0
 10 17  1  0  0  0
 11 16  1  0  0  0
 11 34  1  0  0  0
 11 35  1  0  0  0
 12 14  1  0  0  0
 12 36  1  0  0  0
 12 37  1  0  0  0
 13 38  1  0  0  0
 13 39  1  0  0  0
 13 53  1  0  0  0
 14 20  1  0  0  0
 15 16  2  0  0  0
 16 19  1  0  0  0
 17 21  2  0  0  0
 18 24  1  0  0  0
 18 41  1  0  0  0
 18 42  1  0  0  0
 18 53  1  0  0  0
 19 22  1  0  0  0
 19 25  2  0  0  0
 20 23  2  0  0  0
 20 43  1  0  0  0
 21 23  1  0  0  0
 22 26  2  0  0  0
 23 44  1  0  0  0
 24 29  2  0  0  0
 24 45  1  0  0  0
 25 27  1  0  0  0
 25 46  1  0  0  0
 26 28  1  0  0  0
 26 47  1  0  0  0
 27 28  2  0  0  0
 27 49  1  0  0  0
 28 50  1  0  0  0
 29 51  1  0  0  0
 29 52  1  0  0  0
 53 54  1  0  0  0
M  CHG  1  53   1
M  END
> <LID>
L009139

> <PC_CID>
44211129

> <Names>


> <CAS_Numbers>


$$$$
10206951
                    3D
 Structure written by MMmdl.
 70 74  0  0  1  0            999 V2000
    5.6513   -5.5432    0.6681 S   0  0  0  0  0  0
   -5.8982    0.0294    0.2665 O   0  0  0  0  0  0
    1.2587    2.4842   -1.5776 N   0  0  0  0  0  0
   -5.1771   -2.1187    0.0322 N   0  0  0  0  0  0
    1.4828    0.4407    1.0487 C   0  0  0  0  0  0
    2.9262    0.9189    1.1374 C   0  0  0  0  0  0
    1.4010   -1.0775    1.1375 C   0  0  0  0  0  0
    3.7908    0.2315    0.0679 C   0  0  0  0  0  0
    2.2915   -1.7321    0.0685 C   0  0  0  0  0  0
    0.4129    1.2601    0.8914 C   0  0  0  0  0  0
    4.6096   -1.9205   -0.8075 C   0  0  0  0  0  0
    0.5769    2.7173    0.7296 C   0  0  0  0  0  0
   -0.9478    0.7253    0.7293 C   0  0  0  0  0  0
    4.8142   -3.3680   -0.4672 C   0  0  0  0  0  0
    0.9848    3.2777   -0.5111 C   0  0  0  0  0  0
    0.2833    3.5558    1.8263 C   0  0  0  0  0  0
   -1.8897    0.8316    1.7736 C   0  0  0  0  0  0
   -1.3364    0.1393   -0.4941 C   0  0  0  0  0  0
    4.1716   -4.4513   -1.1424 C   0  0  0  0  0  0
    5.6478   -3.8061    0.5316 C   0  0  0  0  0  0
    1.1041    4.6941   -0.6037 C   0  0  0  0  0  0
   -3.1959    0.3326    1.6075 C   0  0  0  0  0  0
   -2.6420   -0.3599   -0.6619 C   0  0  0  0  0  0
   -3.5735   -0.2857    0.3969 C   0  0  0  0  0  0
    0.4065    4.9512    1.7157 C   0  0  0  0  0  0
    0.8189    5.5216    0.5003 C   0  0  0  0  0  0
    4.5174   -5.6798   -0.6452 C   0  0  0  0  0  0
    1.5132    5.2736   -1.8225 C   0  0  0  0  0  0
   -4.9780   -0.7881    0.2244 C   0  0  0  0  0  0
    1.6473    3.0462   -2.7403 C   0  0  0  0  0  0
    1.7914    4.4336   -2.9147 C   0  0  0  0  0  0
   -6.5278   -2.6442   -0.2156 C   0  0  0  0  0  0
   -4.1359   -3.1538    0.1435 C   0  0  0  0  0  0
   -6.8754   -2.6074   -1.7103 C   0  0  0  0  0  0
   -3.8443   -3.5107    1.6086 C   0  0  0  0  0  0
    3.0173    1.9999    1.0416 H   0  0  0  0  0  0
    3.3051    0.6734    2.1302 H   0  0  0  0  0  0
    1.7390   -1.3778    2.1301 H   0  0  0  0  0  0
    0.3820   -1.4502    1.0447 H   0  0  0  0  0  0
    3.4803    0.5578   -0.9263 H   0  0  0  0  0  0
    4.8285    0.5432    0.1930 H   0  0  0  0  0  0
    1.8936   -1.5189   -0.9251 H   0  0  0  0  0  0
    2.2540   -2.8137    0.1979 H   0  0  0  0  0  0
    4.2194   -1.8087   -1.8204 H   0  0  0  0  0  0
    5.5766   -1.4153   -0.8004 H   0  0  0  0  0  0
   -0.0344    3.1264    2.7651 H   0  0  0  0  0  0
   -1.6123    1.2936    2.7096 H   0  0  0  0  0  0
   -0.6307    0.0749   -1.3097 H   0  0  0  0  0  0
    3.4825   -4.2945   -1.9594 H   0  0  0  0  0  0
    6.2626   -3.2178    1.1973 H   0  0  0  0  0  0
   -3.9062    0.4210    2.4171 H   0  0  0  0  0  0
   -2.9257   -0.7990   -1.6076 H   0  0  0  0  0  0
    0.1834    5.5834    2.5629 H   0  0  0  0  0  0
    0.9119    6.5951    0.4190 H   0  0  0  0  0  0
    4.1785   -6.6529   -0.9696 H   0  0  0  0  0  0
    1.6122    6.3448   -1.9226 H   0  0  0  0  0  0
    1.8509    2.3679   -3.5557 H   0  0  0  0  0  0
    2.1059    4.8426   -3.8637 H   0  0  0  0  0  0
   -6.6085   -3.6685    0.1510 H   0  0  0  0  0  0
   -7.2746   -2.0858    0.3515 H   0  0  0  0  0  0
   -4.4537   -4.0549   -0.3830 H   0  0  0  0  0  0
   -3.2162   -2.8625   -0.3592 H   0  0  0  0  0  0
   -7.8715   -3.0140   -1.8859 H   0  0  0  0  0  0
   -6.8619   -1.5875   -2.0958 H   0  0  0  0  0  0
   -6.1684   -3.1967   -2.2948 H   0  0  0  0  0  0
   -3.1017   -4.3062    1.6714 H   0  0  0  0  0  0
   -3.4563   -2.6547    2.1609 H   0  0  0  0  0  0
   -4.7447   -3.8571    2.1168 H   0  0  0  0  0  0
    3.6974   -1.2495    0.1527 N   0  3  1  0  0  0
    4.0296   -1.4984    1.0735 H   0  0  0  0  0  0
  1 20  1  0  0  0
  1 27  1  0  0  0
  2 29  2  0  0  0
  3 15  1  0  0  0
  3 30  2  0  0  0
  4 29  1  0  0  0
  4 32  1  0  0  0
  4 33  1  0  0  0
  5  6  1  0  0  0
  5  7  1  0  0  0
  5 10  2  0  0  0
  6  8  1  0  0  0
  6 36  1  0  0  0
  6 37  1  0  0  0
  7  9  1  0  0  0
  7 38  1  0  0  0
  7 39  1  0  0  0
  8 40  1  0  0  0
  8 41  1  0  0  0
  8 69  1  0  0  0
  9 42  1  0  0  0
  9 43  1  0  0  0
  9 69  1  0  0  0
 10 12  1  0  0  0
 10 13  1  0  0  0
 11 14  1  0  0  0
 11 44  1  0  0  0
 11 45  1  0  0  0
 11 69  1  0  0  0
 12 15  1  0  0  0
 12 16  2  0  0  0
 13 17  2  0  0  0
 13 18  1  0  0  0
 14 19  1  0  0  0
 14 20  2  0  0  0
 15 21  2  0  0  0
 16 25  1  0  0  0
 16 46  1  0  0  0
 17 22  1  0  0  0
 17 47  1  0  0  0
 18 23  2  0  0  0
 18 48  1  0  0  0
 19 27  2  0  0  0
 19 49  1  0  0  0
 20 50  1  0  0  0
 21 26  1  0  0  0
 21 28  1  0  0  0
 22 24  2  0  0  0
 22 51  1  0  0  0
 23 24  1  0  0  0
 23 52  1  0  0  0
 24 29  1  0  0  0
 25 26  2  0  0  0
 25 53  1  0  0  0
 26 54  1  0  0  0
 27 55  1  0  0  0
 28 31  2  0  0  0
 28 56  1  0  0  0
 30 31  1  0  0  0
 30 57  1  0  0  0
 31 58  1  0  0  0
 32 34  1  0  0  0
 32 59  1  0  0  0
 32 60  1  0  0  0
 33 35  1  0  0  0
 33 61  1  0  0  0
 33 62  1  0  0  0
 34 63  1  0  0  0
 34 64  1  0  0  0
 34 65  1  0  0  0
 35 66  1  0  0  0
 35 67  1  0  0  0
 35 68  1  0  0  0
 69 70  1  0  0  0
M  CHG  1  69   1
M  END
> <LID>
L020881

> <PC_CID>
10206951

> <Names>


> <CAS_Numbers>


$$$$
21837406
                    3D
 Structure written by MMmdl.
 50 53  0  0  1  0            999 V2000
   -0.9369    4.3076    0.3703 O   0  0  0  0  0  0
    1.3758   -0.1344    0.3493 C   0  0  2  0  0  0
    1.8281   -0.8113   -0.9789 C   0  0  1  0  0  0
    2.4039   -0.4918    1.4616 C   0  0  0  0  0  0
   -0.0199   -0.7113    0.7527 C   0  0  0  0  0  0
    2.1283   -2.3169   -0.7994 C   0  0  0  0  0  0
    0.8135   -0.5608   -2.1138 C   0  0  0  0  0  0
    2.7371   -1.9935    1.5607 C   0  0  0  0  0  0
    1.3585    1.4080    0.1783 C   0  0  0  0  0  0
   -1.0378   -0.7833   -0.3849 C   0  0  0  0  0  0
   -0.6309   -0.6931   -1.6683 C   0  0  0  0  0  0
    3.5748   -3.9544    0.3341 C   0  0  0  0  0  0
    0.1867    2.1883    0.3626 C   0  0  0  0  0  0
    2.5474    2.0864   -0.1915 C   0  0  0  0  0  0
   -2.4774   -0.8574   -0.0568 C   0  0  0  0  0  0
    0.2065    3.5859    0.1884 C   0  0  0  0  0  0
    2.5702    3.4831   -0.3646 C   0  0  0  0  0  0
   -3.4366   -0.1572   -0.8249 C   0  0  0  0  0  0
   -2.9071   -1.6471    1.0333 C   0  0  0  0  0  0
    1.3993    4.2362   -0.1740 C   0  0  0  0  0  0
   -4.8050   -0.2441   -0.5028 C   0  0  0  0  0  0
   -4.2762   -1.7331    1.3528 C   0  0  0  0  0  0
   -5.2254   -1.0319    0.5854 C   0  0  0  0  0  0
    2.7724   -0.3725   -1.3015 H   0  0  0  0  0  0
    2.0499   -0.1274    2.4270 H   0  0  0  0  0  0
    3.3478    0.0228    1.2853 H   0  0  0  0  0  0
   -0.4274   -0.1467    1.5916 H   0  0  0  0  0  0
    0.0592   -1.7292    1.1272 H   0  0  0  0  0  0
    1.2233   -2.8753   -0.5564 H   0  0  0  0  0  0
    2.4966   -2.7242   -1.7421 H   0  0  0  0  0  0
    0.9952   -1.2396   -2.9475 H   0  0  0  0  0  0
    0.9396    0.4479   -2.5088 H   0  0  0  0  0  0
    3.5477   -2.1298    2.2777 H   0  0  0  0  0  0
    1.8938   -2.5642    1.9493 H   0  0  0  0  0  0
   -1.3550   -0.7054   -2.4697 H   0  0  0  0  0  0
    4.3765   -4.0750    1.0635 H   0  0  0  0  0  0
    2.7421   -4.5930    0.6325 H   0  0  0  0  0  0
    3.9475   -4.3062   -0.6285 H   0  0  0  0  0  0
   -0.7577    1.7438    0.6321 H   0  0  0  0  0  0
    3.4655    1.5417   -0.3511 H   0  0  0  0  0  0
    3.4887    3.9770   -0.6459 H   0  0  0  0  0  0
   -3.1341    0.4618   -1.6567 H   0  0  0  0  0  0
   -2.1945   -2.1970    1.6297 H   0  0  0  0  0  0
    1.4207    5.3077   -0.3091 H   0  0  0  0  0  0
   -5.5327    0.2963   -1.0903 H   0  0  0  0  0  0
   -4.5985   -2.3389    2.1869 H   0  0  0  0  0  0
   -0.8189    5.2345    0.2299 H   0  0  0  0  0  0
   -6.2751   -1.0980    0.8315 H   0  0  0  0  0  0
    3.1544   -2.5388    0.2475 N   0  3  1  0  0  0
    3.9708   -2.0153   -0.0355 H   0  0  0  0  0  0
  1 16  1  0  0  0
  1 47  1  0  0  0
  2  3  1  0  0  0
  2  4  1  0  0  0
  2  5  1  0  0  0
  2  9  1  0  0  0
  3  6  1  0  0  0
  3  7  1  0  0  0
  3 24  1  0  0  0
  4  8  1  0  0  0
  4 25  1  0  0  0
  4 26  1  0  0  0
  5 10  1  0  0  0
  5 27  1  0  0  0
  5 28  1  0  0  0
  6 29  1  0  0  0
  6 30  1  0  0  0
  6 49  1  0  0  0
  7 11  1  0  0  0
  7 31  1  0  0  0
  7 32  1  0  0  0
  8 33  1  0  0  0
  8 34  1  0  0  0
  8 49  1  0  0  0
  9 13  2  0  0  0
  9 14  1  0  0  0
 10 11  2  0  0  0
 10 15  1  0  0  0
 11 35  1  0  0  0
 12 36  1  0  0  0
 12 37  1  0  0  0
 12 38  1  0  0  0
 12 49  1  0  0  0
 13 16  1  0  0  0
 13 39  1  0  0  0
 14 17  2  0  0  0
 14 40  1  0  0  0
 15 18  2  0  0  0
 15 19  1  0  0  0
 16 20  2  0  0  0
 17 20  1  0  0  0
 17 41  1  0  0  0
 18 21  1  0  0  0
 18 42  1  0  0  0
 19 22  2  0  0  0
 19 43  1  0  0  0
 20 44  1  0  0  0
 21 23  2  0  0  0
 21 45  1  0  0  0
 22 23  1  0  0  0
 22 46  1  0  0  0
 23 48  1  0  0  0
 49 50  1  0  0  0
M  CHG  1  49   1
M  END
> <LID>
L016307

> <PC_CID>
21837406

> <Names>


> <CAS_Numbers>


$$$$
10117292
                    3D
 Structure written by MMmdl.
 72 76  0  0  1  0            999 V2000
    6.1319   -0.3782   -0.1602 O   0  0  0  0  0  0
   -1.0004    2.9734   -1.3567 N   0  0  0  0  0  0
    5.2908   -2.4920   -0.0420 N   0  0  0  0  0  0
   -5.6693   -5.4079   -0.2849 N   0  0  0  0  0  0
   -1.1720    0.5781    0.9439 C   0  0  0  0  0  0
   -2.5463    1.1831    1.2067 C   0  0  0  0  0  0
   -1.2485   -0.9403    0.8350 C   0  0  0  0  0  0
   -3.5622    0.7209    0.1503 C   0  0  0  0  0  0
   -2.2969   -1.3657   -0.2073 C   0  0  0  0  0  0
   -0.0338    1.3029    0.7948 C   0  0  0  0  0  0
   -4.6874   -1.2183   -0.8657 C   0  0  0  0  0  0
   -0.0440    2.7775    0.8544 C   0  0  0  0  0  0
    1.2777    0.6653    0.5905 C   0  0  0  0  0  0
   -5.0316   -2.6834   -0.6673 C   0  0  0  0  0  0
   -0.5179    3.5609   -0.2326 C   0  0  0  0  0  0
    0.4750    3.4022    2.0085 C   0  0  0  0  0  0
    1.9807    0.8631   -0.6164 C   0  0  0  0  0  0
    1.8671   -0.1104    1.6120 C   0  0  0  0  0  0
   -0.4758    4.9793   -0.1089 C   0  0  0  0  0  0
   -4.5631   -3.6658   -1.5640 C   0  0  0  0  0  0
   -5.8268   -3.0907    0.4233 C   0  0  0  0  0  0
    3.2428    0.2701   -0.8118 C   0  0  0  0  0  0
    3.1289   -0.7041    1.4182 C   0  0  0  0  0  0
    3.8147   -0.5351    0.1955 C   0  0  0  0  0  0
    0.5086    4.8032    2.1122 C   0  0  0  0  0  0
    0.0302    5.5932    1.0540 C   0  0  0  0  0  0
   -0.9466    5.7785   -1.1711 C   0  0  0  0  0  0
   -4.9101   -5.0110   -1.3280 C   0  0  0  0  0  0
   -6.1165   -4.4622    0.5682 C   0  0  0  0  0  0
    5.1736   -1.1382   -0.0159 C   0  0  0  0  0  0
   -1.4468    3.7446   -2.3690 C   0  0  0  0  0  0
   -1.4434    5.1496   -2.3260 C   0  0  0  0  0  0
    6.6113   -3.1254   -0.1715 C   0  0  0  0  0  0
    4.1626   -3.4381   -0.0462 C   0  0  0  0  0  0
    7.2729   -3.3218    1.1997 C   0  0  0  0  0  0
    3.5336   -3.5657   -1.4414 C   0  0  0  0  0  0
   -2.8736    0.8579    2.1949 H   0  0  0  0  0  0
   -2.5276    2.2711    1.2435 H   0  0  0  0  0  0
   -0.2920   -1.3883    0.5710 H   0  0  0  0  0  0
   -1.5155   -1.3407    1.8137 H   0  0  0  0  0  0
   -3.2955    1.1284   -0.8264 H   0  0  0  0  0  0
   -4.5457    1.1200    0.4016 H   0  0  0  0  0  0
   -1.9657   -1.0723   -1.2049 H   0  0  0  0  0  0
   -2.3681   -2.4533   -0.2064 H   0  0  0  0  0  0
   -5.5989   -0.6412   -0.7027 H   0  0  0  0  0  0
   -4.3840   -1.0344   -1.8977 H   0  0  0  0  0  0
    0.8487    2.8012    2.8250 H   0  0  0  0  0  0
    1.5515    1.4711   -1.3995 H   0  0  0  0  0  0
    1.3510   -0.2498    2.5508 H   0  0  0  0  0  0
   -3.9512   -3.4015   -2.4141 H   0  0  0  0  0  0
   -6.2107   -2.3741    1.1346 H   0  0  0  0  0  0
    3.7681    0.4317   -1.7422 H   0  0  0  0  0  0
    3.5686   -1.2893    2.2131 H   0  0  0  0  0  0
    0.9034    5.2710    3.0024 H   0  0  0  0  0  0
    0.0585    6.6702    1.1370 H   0  0  0  0  0  0
   -0.9272    6.8568   -1.1058 H   0  0  0  0  0  0
   -4.5674   -5.7886   -1.9945 H   0  0  0  0  0  0
   -6.7229   -4.8084    1.3921 H   0  0  0  0  0  0
   -1.8193    3.2246   -3.2392 H   0  0  0  0  0  0
   -1.8109    5.7300   -3.1595 H   0  0  0  0  0  0
    6.5208   -4.0902   -0.6726 H   0  0  0  0  0  0
    7.2657   -2.5368   -0.8167 H   0  0  0  0  0  0
    4.5049   -4.4218    0.2784 H   0  0  0  0  0  0
    3.4014   -3.1678    0.6825 H   0  0  0  0  0  0
    8.2436   -3.8067    1.0949 H   0  0  0  0  0  0
    7.4325   -2.3680    1.7035 H   0  0  0  0  0  0
    6.6583   -3.9459    1.8490 H   0  0  0  0  0  0
    2.7275   -4.2994   -1.4355 H   0  0  0  0  0  0
    3.1135   -2.6187   -1.7807 H   0  0  0  0  0  0
    4.2700   -3.8886   -2.1779 H   0  0  0  0  0  0
   -3.6279   -0.7605    0.0675 N   0  3  2  0  0  0
   -3.9054   -1.0814    0.9843 H   0  0  0  0  0  0
  1 30  2  0  0  0
  2 15  1  0  0  0
  2 31  2  0  0  0
  3 30  1  0  0  0
  3 33  1  0  0  0
  3 34  1  0  0  0
  4 28  2  0  0  0
  4 29  1  0  0  0
  5  6  1  0  0  0
  5  7  1  0  0  0
  5 10  2  0  0  0
  6  8  1  0  0  0
  6 37  1  0  0  0
  6 38  1  0  0  0
  7  9  1  0  0  0
  7 39  1  0  0  0
  7 40  1  0  0  0
  8 41  1  0  0  0
  8 42  1  0  0  0
  8 71  1  0  0  0
  9 43  1  0  0  0
  9 44  1  0  0  0
  9 71  1  0  0  0
 10 12  1  0  0  0
 10 13  1  0  0  0
 11 14  1  0  0  0
 11 45  1  0  0  0
 11 46  1  0  0  0
 11 71  1  0  0  0
 12 15  1  0  0  0
 12 16  2  0  0  0
 13 17  2  0  0  0
 13 18  1  0  0  0
 14 20  2  0  0  0
 14 21  1  0  0  0
 15 19  2  0  0  0
 16 25  1  0  0  0
 16 47  1  0  0  0
 17 22  1  0  0  0
 17 48  1  0  0  0
 18 23  2  0  0  0
 18 49  1  0  0  0
 19 26  1  0  0  0
 19 27  1  0  0  0
 20 28  1  0  0  0
 20 50  1  0  0  0
 21 29  2  0  0  0
 21 51  1  0  0  0
 22 24  2  0  0  0
 22 52  1  0  0  0
 23 24  1  0  0  0
 23 53  1  0  0  0
 24 30  1  0  0  0
 25 26  2  0  0  0
 25 54  1  0  0  0
 26 55  1  0  0  0
 27 32  2  0  0  0
 27 56  1  0  0  0
 28 57  1  0  0  0
 29 58  1  0  0  0
 31 32  1  0  0  0
 31 59  1  0  0  0
 32 60  1  0  0  0
 33 35  1  0  0  0
 33 61  1  0  0  0
 33 62  1  0  0  0
 34 36  1  0  0  0
 34 63  1  0  0  0
 34 64  1  0  0  0
 35 65  1  0  0  0
 35 66  1  0  0  0
 35 67  1  0  0  0
 36 68  1  0  0  0
 36 69  1  0  0  0
 36 70  1  0  0  0
 71 72  1  0  0  0
M  CHG  1  71   1
M  END
> <LID>
L020885

> <PC_CID>
10117292

> <Names>


> <CAS_Numbers>


$$$$
44214891
                    3D
 Structure written by MMmdl.
 45 47  0  0  1  0            999 V2000
    2.4374   -0.2848   -1.8441 S   0  0  1  0  0  0
    3.7891   -0.0692   -2.5274 O   0  0  0  0  0  0
   -3.3001    1.7666   -2.7138 O   0  0  0  0  0  0
    0.3207   -1.3645    0.1564 C   0  0  0  0  0  0
    1.7125   -1.9718    0.3068 C   0  0  0  0  0  0
    0.1179   -0.0295    0.2844 C   0  0  0  0  0  0
    2.5171   -1.9482   -1.0043 C   0  0  0  0  0  0
   -0.7820   -2.3714   -0.1709 C   0  0  0  0  0  0
    1.2722    0.8736    0.4745 C   0  0  0  0  0  0
    2.4088    0.8195   -0.3736 C   0  0  0  0  0  0
   -1.2093    0.5671    0.0725 C   0  0  0  0  0  0
    1.2700    1.7940    1.5461 C   0  0  0  0  0  0
    3.5180    1.6588   -0.1436 C   0  0  0  0  0  0
   -1.6285    0.8838   -1.2362 C   0  0  0  0  0  0
   -2.0439    0.8545    1.1722 C   0  0  0  0  0  0
    2.3773    2.6332    1.7756 C   0  0  0  0  0  0
   -1.6547   -2.5985    2.1374 C   0  0  0  0  0  0
   -1.8600   -4.4574    0.5534 C   0  0  0  0  0  0
    3.5027    2.5632    0.9340 C   0  0  0  0  0  0
   -2.8926    1.4685   -1.4464 C   0  0  0  0  0  0
   -3.3072    1.4394    0.9594 C   0  0  0  0  0  0
   -3.7326    1.7445   -0.3486 C   0  0  0  0  0  0
    2.2663   -1.4550    1.0913 H   0  0  0  0  0  0
    1.6338   -2.9984    0.6643 H   0  0  0  0  0  0
    3.5585   -2.2136   -0.8217 H   0  0  0  0  0  0
    2.1170   -2.6889   -1.6969 H   0  0  0  0  0  0
   -1.7110   -1.8909   -0.4774 H   0  0  0  0  0  0
   -0.4474   -2.9508   -1.0325 H   0  0  0  0  0  0
    0.4211    1.8534    2.2108 H   0  0  0  0  0  0
    4.3787    1.6224   -0.7950 H   0  0  0  0  0  0
   -0.9834    0.6765   -2.0780 H   0  0  0  0  0  0
   -1.7214    0.6257    2.1774 H   0  0  0  0  0  0
    2.3643    3.3293    2.6014 H   0  0  0  0  0  0
   -1.8197   -3.3030    2.9533 H   0  0  0  0  0  0
   -0.9964   -1.8157    2.5144 H   0  0  0  0  0  0
   -2.6133   -2.1458    1.8801 H   0  0  0  0  0  0
   -1.9919   -5.1487    1.3865 H   0  0  0  0  0  0
   -2.8470   -4.1535    0.2018 H   0  0  0  0  0  0
   -1.3631   -5.0019   -0.2504 H   0  0  0  0  0  0
    4.3510    3.2081    1.1104 H   0  0  0  0  0  0
   -3.9499    1.6566    1.7999 H   0  0  0  0  0  0
   -4.7027    2.1937   -0.5041 H   0  0  0  0  0  0
   -4.1560    2.1658   -2.7471 H   0  0  0  0  0  0
   -1.0596   -3.2839    0.9668 N   0  3  0  0  0  0
   -0.1660   -3.6462    1.2682 H   0  0  0  0  0  0
  1  2  2  0  0  0
  1  7  1  0  0  0
  1 10  1  0  0  0
  3 20  1  0  0  0
  3 43  1  0  0  0
  4  5  1  0  0  0
  4  6  2  0  0  0
  4  8  1  0  0  0
  5  7  1  0  0  0
  5 23  1  0  0  0
  5 24  1  0  0  0
  6  9  1  0  0  0
  6 11  1  0  0  0
  7 25  1  0  0  0
  7 26  1  0  0  0
  8 27  1  0  0  0
  8 28  1  0  0  0
  8 44  1  0  0  0
  9 10  1  0  0  0
  9 12  2  0  0  0
 10 13  2  0  0  0
 11 14  2  0  0  0
 11 15  1  0  0  0
 12 16  1  0  0  0
 12 29  1  0  0  0
 13 19  1  0  0  0
 13 30  1  0  0  0
 14 20  1  0  0  0
 14 31  1  0  0  0
 15 21  2  0  0  0
 15 32  1  0  0  0
 16 19  2  0  0  0
 16 33  1  0  0  0
 17 34  1  0  0  0
 17 35  1  0  0  0
 17 36  1  0  0  0
 17 44  1  0  0  0
 18 37  1  0  0  0
 18 38  1  0  0  0
 18 39  1  0  0  0
 18 44  1  0  0  0
 19 40  1  0  0  0
 20 22  2  0  0  0
 21 22  1  0  0  0
 21 41  1  0  0  0
 22 42  1  0  0  0
 44 45  1  0  0  0
M  CHG  1  44   1
M  END
> <LID>
L018922

> <PC_CID>
44214891

> <Names>


> <CAS_Numbers>


$$$$
21837420
                    3D
 Structure written by MMmdl.
 53 56  0  0  1  0            999 V2000
   -3.6389   -3.3178   -1.7550 O   0  0  0  0  0  0
   -0.5020    0.0972    0.1316 C   0  0  2  0  0  0
   -0.7374    0.9250   -1.1737 C   0  0  1  0  0  0
   -0.7201    1.1006    1.3006 C   0  0  0  0  0  0
    0.9434   -0.4716    0.1549 C   0  0  0  0  0  0
   -2.1414    1.5808   -1.1948 C   0  0  0  0  0  0
    0.3479    1.9941   -1.4388 C   0  0  0  0  0  0
   -2.1263    1.7291    1.2676 C   0  0  0  0  0  0
   -1.4477   -1.1253    0.2707 C   0  0  0  0  0  0
    2.0475    0.4337   -0.3825 C   0  0  0  0  0  0
    1.7469    1.5436   -1.0837 C   0  0  0  0  0  0
   -3.6811    3.1369   -0.0613 C   0  0  0  0  0  0
   -2.1394   -1.6882   -0.8336 C   0  0  0  0  0  0
   -1.5901   -1.7652    1.5281 C   0  0  0  0  0  0
    3.4549    0.1202   -0.0489 C   0  0  0  0  0  0
   -3.7332    4.3858    0.8307 C   0  0  0  0  0  0
   -2.9755   -2.8107   -0.6761 C   0  0  0  0  0  0
   -2.4235   -2.8884    1.6880 C   0  0  0  0  0  0
    4.3861    1.1490    0.2267 C   0  0  0  0  0  0
    3.8847   -1.2258   -0.0164 C   0  0  0  0  0  0
   -3.1238   -3.4096    0.5871 C   0  0  0  0  0  0
    5.7241    0.8338    0.5341 C   0  0  0  0  0  0
    5.2234   -1.5386    0.2904 C   0  0  0  0  0  0
    6.1434   -0.5095    0.5659 C   0  0  0  0  0  0
   -0.6524    0.2525   -2.0263 H   0  0  0  0  0  0
    0.0197    1.9000    1.2564 H   0  0  0  0  0  0
   -0.5486    0.6391    2.2712 H   0  0  0  0  0  0
    0.9863   -1.3866   -0.4376 H   0  0  0  0  0  0
    1.1943   -0.7591    1.1770 H   0  0  0  0  0  0
   -2.2478    2.1713   -2.1059 H   0  0  0  0  0  0
   -2.9301    0.8299   -1.2301 H   0  0  0  0  0  0
    0.1560    2.9080   -0.8768 H   0  0  0  0  0  0
    0.3318    2.2774   -2.4918 H   0  0  0  0  0  0
   -2.8924    0.9651    1.4077 H   0  0  0  0  0  0
   -2.2169    2.4172    2.1072 H   0  0  0  0  0  0
    2.5347    2.1942   -1.4342 H   0  0  0  0  0  0
   -3.8790    3.4543   -1.0861 H   0  0  0  0  0  0
   -4.4776    2.4401    0.2041 H   0  0  0  0  0  0
   -2.0521   -1.2809   -1.8274 H   0  0  0  0  0  0
   -1.0513   -1.4154    2.3944 H   0  0  0  0  0  0
   -4.6767    4.9143    0.6921 H   0  0  0  0  0  0
   -3.6573    4.1390    1.8893 H   0  0  0  0  0  0
   -2.9290    5.0804    0.5863 H   0  0  0  0  0  0
   -2.5195   -3.3550    2.6574 H   0  0  0  0  0  0
    4.0841    2.1859    0.2184 H   0  0  0  0  0  0
    3.1970   -2.0299   -0.2317 H   0  0  0  0  0  0
   -3.7615   -4.2722    0.7142 H   0  0  0  0  0  0
    6.4290    1.6238    0.7474 H   0  0  0  0  0  0
    5.5449   -2.5695    0.3126 H   0  0  0  0  0  0
   -4.1639   -4.0756   -1.5476 H   0  0  0  0  0  0
    7.1696   -0.7503    0.8013 H   0  0  0  0  0  0
   -2.3649    2.4514   -0.0099 N   0  3  2  0  0  0
   -1.6642    3.1768   -0.0663 H   0  0  0  0  0  0
  1 17  1  0  0  0
  1 50  1  0  0  0
  2  3  1  0  0  0
  2  4  1  0  0  0
  2  5  1  0  0  0
  2  9  1  0  0  0
  3  6  1  0  0  0
  3  7  1  0  0  0
  3 25  1  0  0  0
  4  8  1  0  0  0
  4 26  1  0  0  0
  4 27  1  0  0  0
  5 10  1  0  0  0
  5 28  1  0  0  0
  5 29  1  0  0  0
  6 30  1  0  0  0
  6 31  1  0  0  0
  6 52  1  0  0  0
  7 11  1  0  0  0
  7 32  1  0  0  0
  7 33  1  0  0  0
  8 34  1  0  0  0
  8 35  1  0  0  0
  8 52  1  0  0  0
  9 13  2  0  0  0
  9 14  1  0  0  0
 10 11  2  0  0  0
 10 15  1  0  0  0
 11 36  1  0  0  0
 12 16  1  0  0  0
 12 37  1  0  0  0
 12 38  1  0  0  0
 12 52  1  0  0  0
 13 17  1  0  0  0
 13 39  1  0  0  0
 14 18  2  0  0  0
 14 40  1  0  0  0
 15 19  2  0  0  0
 15 20  1  0  0  0
 16 41  1  0  0  0
 16 42  1  0  0  0
 16 43  1  0  0  0
 17 21  2  0  0  0
 18 21  1  0  0  0
 18 44  1  0  0  0
 19 22  1  0  0  0
 19 45  1  0  0  0
 20 23  2  0  0  0
 20 46  1  0  0  0
 21 47  1  0  0  0
 22 24  2  0  0  0
 22 48  1  0  0  0
 23 24  1  0  0  0
 23 49  1  0  0  0
 24 51  1  0  0  0
 52 53  1  0  0  0
M  CHG  1  52   1
M  END
> <LID>
L016311

> <PC_CID>
21837420

> <Names>


> <CAS_Numbers>


$$$$
10277645
                    3D
 Structure written by MMmdl.
 75 78  0  0  1  0            999 V2000
    5.6709    0.5984    0.0454 O   0  0  0  0  0  0
   -0.1211    6.2186   -1.6673 O   0  0  0  0  0  0
    4.9502   -1.5659   -0.1540 N   0  0  0  0  0  0
   -4.0386    0.9489   -0.2404 C   0  0  0  0  0  0
   -2.5819   -1.0399   -0.2778 C   0  0  0  0  0  0
   -3.1458    1.6186    0.8183 C   0  0  0  0  0  0
   -1.6650   -0.4146    0.7854 C   0  0  0  0  0  0
   -1.7117    1.1085    0.7277 C   0  0  0  0  0  0
   -4.9197   -1.1806   -1.1065 C   0  0  0  0  0  0
   -0.6197    1.9059    0.6006 C   0  0  0  0  0  0
    0.7347    1.3477    0.4545 C   0  0  0  0  0  0
   -5.1513   -2.6448   -0.7766 C   0  0  0  0  0  0
   -0.7219    3.3751    0.6062 C   0  0  0  0  0  0
    6.3210   -2.0130   -0.5417 C   0  0  0  0  0  0
    3.8971   -2.5705    0.1875 C   0  0  0  0  0  0
    1.1104    0.6774   -0.7295 C   0  0  0  0  0  0
    1.6883    1.5251    1.4785 C   0  0  0  0  0  0
    3.3546    0.3070    0.1677 C   0  0  0  0  0  0
    4.7530   -0.2236    0.0211 C   0  0  0  0  0  0
   -0.3765    4.1118   -0.5471 C   0  0  0  0  0  0
    2.4124    0.1617   -0.8736 C   0  0  0  0  0  0
    2.9912    1.0104    1.3355 C   0  0  0  0  0  0
   -1.1232    4.0649    1.7715 C   0  0  0  0  0  0
   -4.5263   -3.6554   -1.5384 C   0  0  0  0  0  0
   -5.9978   -3.0012    0.2947 C   0  0  0  0  0  0
    7.2489   -2.2079    0.6742 C   0  0  0  0  0  0
    6.3813   -3.2012   -1.5178 C   0  0  0  0  0  0
    3.2571   -3.2441   -1.0427 C   0  0  0  0  0  0
    4.3300   -3.5878    1.2578 C   0  0  0  0  0  0
   -0.4510    5.5184   -0.5438 C   0  0  0  0  0  0
   -1.1982    5.4712    1.7764 C   0  0  0  0  0  0
   -4.7419   -5.0119   -1.2266 C   0  0  0  0  0  0
   -6.2130   -4.3580    0.6054 C   0  0  0  0  0  0
   -0.8640    6.1988    0.6184 C   0  0  0  0  0  0
   -5.5847   -5.3634   -0.1545 C   0  0  0  0  0  0
   -3.7350    1.2710   -1.2380 H   0  0  0  0  0  0
   -5.0682    1.2812   -0.1013 H   0  0  0  0  0  0
   -2.5629   -2.1234   -0.1607 H   0  0  0  0  0  0
   -2.1965   -0.8230   -1.2755 H   0  0  0  0  0  0
   -3.5252    1.3970    1.8166 H   0  0  0  0  0  0
   -3.2128    2.6986    0.6977 H   0  0  0  0  0  0
   -0.6571   -0.8121    0.6803 H   0  0  0  0  0  0
   -1.9996   -0.7213    1.7773 H   0  0  0  0  0  0
   -5.8866   -0.6766   -1.0658 H   0  0  0  0  0  0
   -4.5579   -1.0727   -2.1304 H   0  0  0  0  0  0
    6.7746   -1.2115   -1.1284 H   0  0  0  0  0  0
    3.0688   -2.0663    0.6822 H   0  0  0  0  0  0
    0.3985    0.5602   -1.5335 H   0  0  0  0  0  0
    1.4213    2.0570    2.3802 H   0  0  0  0  0  0
    2.6860   -0.3342   -1.7926 H   0  0  0  0  0  0
    3.7096    1.1527    2.1301 H   0  0  0  0  0  0
   -0.0549    3.5958   -1.4403 H   0  0  0  0  0  0
   -1.3754    3.5142    2.6662 H   0  0  0  0  0  0
   -3.8777   -3.3952   -2.3622 H   0  0  0  0  0  0
   -6.4846   -2.2363    0.8821 H   0  0  0  0  0  0
    8.2817   -2.3379    0.3500 H   0  0  0  0  0  0
    7.2271   -1.3432    1.3379 H   0  0  0  0  0  0
    6.9898   -3.0853    1.2632 H   0  0  0  0  0  0
    7.3995   -3.3396   -1.8824 H   0  0  0  0  0  0
    6.0875   -4.1425   -1.0583 H   0  0  0  0  0  0
    5.7544   -3.0275   -2.3926 H   0  0  0  0  0  0
    2.2898   -3.6727   -0.7792 H   0  0  0  0  0  0
    3.0887   -2.5382   -1.8543 H   0  0  0  0  0  0
    3.8574   -4.0627   -1.4342 H   0  0  0  0  0  0
    5.0723   -4.2951    0.8940 H   0  0  0  0  0  0
    3.4752   -4.1757    1.5933 H   0  0  0  0  0  0
    4.7377   -3.0853    2.1354 H   0  0  0  0  0  0
   -1.5095    5.9919    2.6700 H   0  0  0  0  0  0
   -4.2613   -5.7833   -1.8102 H   0  0  0  0  0  0
   -6.8608   -4.6280    1.4265 H   0  0  0  0  0  0
   -0.9225    7.2775    0.6280 H   0  0  0  0  0  0
   -5.7502   -6.4038    0.0839 H   0  0  0  0  0  0
   -0.1963    7.1543   -1.5592 H   0  0  0  0  0  0
   -3.9754   -0.5330   -0.1616 N   0  3  2  0  0  0
   -4.2937   -0.7789    0.7649 H   0  0  0  0  0  0
  1 19  2  0  0  0
  2 30  1  0  0  0
  2 73  1  0  0  0
  3 14  1  0  0  0
  3 15  1  0  0  0
  3 19  1  0  0  0
  4  6  1  0  0  0
  4 36  1  0  0  0
  4 37  1  0  0  0
  4 74  1  0  0  0
  5  7  1  0  0  0
  5 38  1  0  0  0
  5 39  1  0  0  0
  5 74  1  0  0  0
  6  8  1  0  0  0
  6 40  1  0  0  0
  6 41  1  0  0  0
  7  8  1  0  0  0
  7 42  1  0  0  0
  7 43  1  0  0  0
  8 10  2  0  0  0
  9 12  1  0  0  0
  9 44  1  0  0  0
  9 45  1  0  0  0
  9 74  1  0  0  0
 10 11  1  0  0  0
 10 13  1  0  0  0
 11 16  2  0  0  0
 11 17  1  0  0  0
 12 24  2  0  0  0
 12 25  1  0  0  0
 13 20  2  0  0  0
 13 23  1  0  0  0
 14 26  1  0  0  0
 14 27  1  0  0  0
 14 46  1  0  0  0
 15 28  1  0  0  0
 15 29  1  0  0  0
 15 47  1  0  0  0
 16 21  1  0  0  0
 16 48  1  0  0  0
 17 22  2  0  0  0
 17 49  1  0  0  0
 18 19  1  0  0  0
 18 21  2  0  0  0
 18 22  1  0  0  0
 20 30  1  0  0  0
 20 52  1  0  0  0
 21 50  1  0  0  0
 22 51  1  0  0  0
 23 31  2  0  0  0
 23 53  1  0  0  0
 24 32  1  0  0  0
 24 54  1  0  0  0
 25 33  2  0  0  0
 25 55  1  0  0  0
 26 56  1  0  0  0
 26 57  1  0  0  0
 26 58  1  0  0  0
 27 59  1  0  0  0
 27 60  1  0  0  0
 27 61  1  0  0  0
 28 62  1  0  0  0
 28 63  1  0  0  0
 28 64  1  0  0  0
 29 65  1  0  0  0
 29 66  1  0  0  0
 29 67  1  0  0  0
 30 34  2  0  0  0
 31 34  1  0  0  0
 31 68  1  0  0  0
 32 35  2  0  0  0
 32 69  1  0  0  0
 33 35  1  0  0  0
 33 70  1  0  0  0
 34 71  1  0  0  0
 35 72  1  0  0  0
 74 75  1  0  0  0
M  CHG  1  74   1
M  END
> <LID>
L021990

> <PC_CID>
10277645

> <Names>


> <CAS_Numbers>


$$$$
10297473
                    3D
 Structure written by MMmdl.
 62 65  0  0  1  0            999 V2000
    6.5942    0.3213    0.0352 O   0  0  0  0  0  0
    6.0590    1.1822   -1.9962 O   0  0  0  0  0  0
   -7.1461   -0.5288    0.2838 O   0  0  0  0  0  0
   -7.5553    1.5589   -0.5222 O   0  0  0  0  0  0
    4.4168    0.8238   -0.3593 N   0  0  0  0  0  0
   -0.2851    1.4241    0.1766 N   0  0  0  0  0  0
    1.1859    1.4229    1.8511 N   0  0  0  0  0  0
    1.6440   -0.2614    0.0335 C   0  0  0  0  0  0
    2.8758   -0.6853    0.8953 C   0  0  0  0  0  0
    2.2425    0.2122   -1.3251 C   0  0  0  0  0  0
    4.0292    0.3432    0.9765 C   0  0  0  0  0  0
    3.2995    1.3167   -1.1687 C   0  0  0  0  0  0
    0.8441    0.8654    0.6886 C   0  0  0  0  0  0
    0.7413   -1.5075   -0.0879 C   0  0  0  0  0  0
    0.0965   -2.0040    1.0712 C   0  0  0  0  0  0
    0.5342   -2.1894   -1.3138 C   0  0  0  0  0  0
    5.7230    0.8063   -0.8714 C   0  0  0  0  0  0
   -0.9967    1.1427   -1.0667 C   0  0  0  0  0  0
   -0.6575    2.4269    1.0672 C   0  0  0  0  0  0
    0.2441    2.4086    2.0977 C   0  0  0  0  0  0
   -0.7328   -3.1399    1.0112 C   0  0  0  0  0  0
   -0.2985   -3.3237   -1.3750 C   0  0  0  0  0  0
   -2.4946    1.0108   -0.8505 C   0  0  0  0  0  0
   -0.9326   -3.8004   -0.2138 C   0  0  0  0  0  0
   -3.0284   -0.1761   -0.3111 C   0  0  0  0  0  0
   -3.3608    2.0693   -1.1904 C   0  0  0  0  0  0
    7.9718    0.2207   -0.2866 C   0  0  0  0  0  0
   -4.4157   -0.3044   -0.1075 C   0  0  0  0  0  0
   -4.7485    1.9426   -0.9869 C   0  0  0  0  0  0
   -5.2924    0.7559   -0.4432 C   0  0  0  0  0  0
    8.7276   -0.3622    0.9098 C   0  0  0  0  0  0
   -6.7668    0.6542   -0.2400 C   0  0  0  0  0  0
   -8.5179   -0.7806    0.5371 C   0  0  0  0  0  0
    3.2954   -1.5971    0.4668 H   0  0  0  0  0  0
    2.5684   -0.9577    1.9056 H   0  0  0  0  0  0
    1.4731    0.5521   -2.0148 H   0  0  0  0  0  0
    2.7397   -0.6225   -1.8209 H   0  0  0  0  0  0
    3.7401    1.2107    1.5678 H   0  0  0  0  0  0
    4.8434   -0.1168    1.5353 H   0  0  0  0  0  0
    3.6194    1.6460   -2.1581 H   0  0  0  0  0  0
    2.8709    2.1960   -0.6865 H   0  0  0  0  0  0
    0.2334   -1.5094    2.0219 H   0  0  0  0  0  0
    0.9935   -1.8580   -2.2315 H   0  0  0  0  0  0
   -0.7848    1.9459   -1.7732 H   0  0  0  0  0  0
   -0.6446    0.2229   -1.5219 H   0  0  0  0  0  0
   -1.5203    3.0550    0.9011 H   0  0  0  0  0  0
    0.2929    3.0262    2.9823 H   0  0  0  0  0  0
   -1.2176   -3.5022    1.9057 H   0  0  0  0  0  0
   -0.4509   -3.8292   -2.3172 H   0  0  0  0  0  0
   -1.5704   -4.6706   -0.2627 H   0  0  0  0  0  0
   -2.3735   -0.9937   -0.0507 H   0  0  0  0  0  0
   -2.9641    2.9844   -1.6052 H   0  0  0  0  0  0
    8.1028   -0.4191   -1.1604 H   0  0  0  0  0  0
    8.3673    1.2063   -0.5360 H   0  0  0  0  0  0
   -4.7882   -1.2288    0.3092 H   0  0  0  0  0  0
   -5.3909    2.7695   -1.2538 H   0  0  0  0  0  0
    9.7916   -0.4512    0.6902 H   0  0  0  0  0  0
    8.6196    0.2732    1.7892 H   0  0  0  0  0  0
    8.3543   -1.3547    1.1637 H   0  0  0  0  0  0
   -8.6398   -1.7788    0.9573 H   0  0  0  0  0  0
   -8.9206   -0.0597    1.2496 H   0  0  0  0  0  0
   -9.1001   -0.7253   -0.3836 H   0  0  0  0  0  0
  1 17  1  0  0  0
  1 27  1  0  0  0
  2 17  2  0  0  0
  3 32  1  0  0  0
  3 33  1  0  0  0
  4 32  2  0  0  0
  5 11  1  0  0  0
  5 12  1  0  0  0
  5 17  1  0  0  0
  6 13  1  0  0  0
  6 18  1  0  0  0
  6 19  1  0  0  0
  7 13  2  0  0  0
  7 20  1  0  0  0
  8  9  1  0  0  0
  8 10  1  0  0  0
  8 13  1  0  0  0
  8 14  1  0  0  0
  9 11  1  0  0  0
  9 34  1  0  0  0
  9 35  1  0  0  0
 10 12  1  0  0  0
 10 36  1  0  0  0
 10 37  1  0  0  0
 11 38  1  0  0  0
 11 39  1  0  0  0
 12 40  1  0  0  0
 12 41  1  0  0  0
 14 15  2  0  0  0
 14 16  1  0  0  0
 15 21  1  0  0  0
 15 42  1  0  0  0
 16 22  2  0  0  0
 16 43  1  0  0  0
 18 23  1  0  0  0
 18 44  1  0  0  0
 18 45  1  0  0  0
 19 20  2  0  0  0
 19 46  1  0  0  0
 20 47  1  0  0  0
 21 24  2  0  0  0
 21 48  1  0  0  0
 22 24  1  0  0  0
 22 49  1  0  0  0
 23 25  2  0  0  0
 23 26  1  0  0  0
 24 50  1  0  0  0
 25 28  1  0  0  0
 25 51  1  0  0  0
 26 29  2  0  0  0
 26 52  1  0  0  0
 27 31  1  0  0  0
 27 53  1  0  0  0
 27 54  1  0  0  0
 28 30  2  0  0  0
 28 55  1  0  0  0
 29 30  1  0  0  0
 29 56  1  0  0  0
 30 32  1  0  0  0
 31 57  1  0  0  0
 31 58  1  0  0  0
 31 59  1  0  0  0
 33 60  1  0  0  0
 33 61  1  0  0  0
 33 62  1  0  0  0
M  END
> <LID>
L022156

> <PC_CID>
10297473

> <Names>


> <CAS_Numbers>


$$$$
9930593
                    3D
 Structure written by MMmdl.
 63 65  0  0  1  0            999 V2000
    4.6877   -1.6909    2.6087 O   0  0  0  0  0  0
   -3.9720   -0.5155   -2.9572 O   0  0  0  0  0  0
    0.9759    0.7808    0.8061 N   0  0  0  0  0  0
   -4.8380   -1.3711   -1.0315 N   0  0  0  0  0  0
    4.4821    2.6711   -0.9359 C   0  0  0  0  0  0
    2.8411    3.8689   -2.2294 C   0  0  0  0  0  0
    4.5600    4.1490   -0.5581 C   0  0  0  0  0  0
    3.9209    4.8474   -1.7549 C   0  0  0  0  0  0
    2.1794    1.6597   -1.2013 C   0  0  0  0  0  0
    1.7397    1.9230    0.2718 C   0  0  1  0  0  0
    0.9729    3.2419    0.4866 C   0  0  0  0  0  0
   -0.1822    0.4253    0.2020 C   0  0  0  0  0  0
    1.5357    0.0582    1.8055 C   0  0  0  0  0  0
   -0.1858   -0.6026   -0.7657 C   0  0  0  0  0  0
   -1.3965    1.0650    0.5329 C   0  0  0  0  0  0
    2.8486   -0.4552    1.6885 C   0  0  0  0  0  0
    0.8039   -0.1940    2.9877 C   0  0  0  0  0  0
   -1.3852   -0.9807   -1.3991 C   0  0  0  0  0  0
   -2.5962    0.6868   -0.0995 C   0  0  0  0  0  0
   -2.5991   -0.3484   -1.0587 C   0  0  0  0  0  0
    3.4197   -1.2035    2.7362 C   0  0  0  0  0  0
    1.3743   -0.9428    4.0352 C   0  0  0  0  0  0
    2.6824   -1.4476    3.9109 C   0  0  0  0  0  0
   -3.8674   -0.7509   -1.7528 C   0  0  0  0  0  0
   -6.1006   -1.7686   -1.6722 C   0  0  0  0  0  0
   -4.7003   -1.8176    0.3653 C   0  0  0  0  0  0
   -5.9632   -3.0949   -2.4361 C   0  0  0  0  0  0
   -5.4370   -0.8967    1.3514 C   0  0  0  0  0  0
    5.3304    2.4205   -1.5740 H   0  0  0  0  0  0
    4.5339    2.0029   -0.0767 H   0  0  0  0  0  0
    1.8654    4.1536   -1.8420 H   0  0  0  0  0  0
    2.7547    3.8733   -3.3163 H   0  0  0  0  0  0
    3.9751    4.3364    0.3428 H   0  0  0  0  0  0
    5.5806    4.4831   -0.3685 H   0  0  0  0  0  0
    4.6667    4.9812   -2.5398 H   0  0  0  0  0  0
    3.5197    5.8304   -1.5061 H   0  0  0  0  0  0
    2.5623    0.6408   -1.2694 H   0  0  0  0  0  0
    1.3187    1.6958   -1.8706 H   0  0  0  0  0  0
    2.6319    2.0156    0.8888 H   0  0  0  0  0  0
    0.1293    3.3386   -0.1972 H   0  0  0  0  0  0
    0.5878    3.3055    1.5048 H   0  0  0  0  0  0
    1.6164    4.1090    0.3512 H   0  0  0  0  0  0
    0.7339   -1.1052   -1.0274 H   0  0  0  0  0  0
   -1.4136    1.8514    1.2730 H   0  0  0  0  0  0
    3.4250   -0.2833    0.7917 H   0  0  0  0  0  0
   -0.2000    0.1894    3.0992 H   0  0  0  0  0  0
   -1.3706   -1.7654   -2.1418 H   0  0  0  0  0  0
   -3.5104    1.2044    0.1485 H   0  0  0  0  0  0
    0.8073   -1.1292    4.9354 H   0  0  0  0  0  0
    3.1144   -2.0209    4.7181 H   0  0  0  0  0  0
   -6.8873   -1.8711   -0.9243 H   0  0  0  0  0  0
   -6.4476   -0.9843   -2.3473 H   0  0  0  0  0  0
   -5.1091   -2.8252    0.4527 H   0  0  0  0  0  0
   -3.6569   -1.9191    0.6642 H   0  0  0  0  0  0
    4.9759   -2.1822    3.3628 H   0  0  0  0  0  0
   -6.9143   -3.3811   -2.8853 H   0  0  0  0  0  0
   -5.2296   -3.0208   -3.2392 H   0  0  0  0  0  0
   -5.6539   -3.9037   -1.7736 H   0  0  0  0  0  0
   -5.3189   -1.2587    2.3728 H   0  0  0  0  0  0
   -5.0572    0.1225    1.3212 H   0  0  0  0  0  0
   -6.5060   -0.8561    1.1427 H   0  0  0  0  0  0
    3.2566    2.5265   -1.7553 N   0  3  0  0  0  0
    3.5610    2.0433   -2.5887 H   0  0  0  0  0  0
  1 21  1  0  0  0
  1 55  1  0  0  0
  2 24  2  0  0  0
  3 10  1  0  0  0
  3 12  1  0  0  0
  3 13  1  0  0  0
  4 24  1  0  0  0
  4 25  1  0  0  0
  4 26  1  0  0  0
  5  7  1  0  0  0
  5 29  1  0  0  0
  5 30  1  0  0  0
  5 62  1  0  0  0
  6  8  1  0  0  0
  6 31  1  0  0  0
  6 32  1  0  0  0
  6 62  1  0  0  0
  7  8  1  0  0  0
  7 33  1  0  0  0
  7 34  1  0  0  0
  8 35  1  0  0  0
  8 36  1  0  0  0
  9 10  1  0  0  0
  9 37  1  0  0  0
  9 38  1  0  0  0
  9 62  1  0  0  0
 10 11  1  0  0  0
 10 39  1  0  0  0
 11 40  1  0  0  0
 11 41  1  0  0  0
 11 42  1  0  0  0
 12 14  2  0  0  0
 12 15  1  0  0  0
 13 16  2  0  0  0
 13 17  1  0  0  0
 14 18  1  0  0  0
 14 43  1  0  0  0
 15 19  2  0  0  0
 15 44  1  0  0  0
 16 21  1  0  0  0
 16 45  1  0  0  0
 17 22  2  0  0  0
 17 46  1  0  0  0
 18 20  2  0  0  0
 18 47  1  0  0  0
 19 20  1  0  0  0
 19 48  1  0  0  0
 20 24  1  0  0  0
 21 23  2  0  0  0
 22 23  1  0  0  0
 22 49  1  0  0  0
 23 50  1  0  0  0
 25 27  1  0  0  0
 25 51  1  0  0  0
 25 52  1  0  0  0
 26 28  1  0  0  0
 26 53  1  0  0  0
 26 54  1  0  0  0
 27 56  1  0  0  0
 27 57  1  0  0  0
 27 58  1  0  0  0
 28 59  1  0  0  0
 28 60  1  0  0  0
 28 61  1  0  0  0
 62 63  1  0  0  0
M  CHG  1  62   1
M  END
> <LID>
L015793

> <PC_CID>
9930593

> <Names>


> <CAS_Numbers>


$$$$
22380688
                    3D
 Structure written by MMmdl.
 84 88  0  0  1  0            999 V2000
    4.7364    2.3334    2.0353 O   0  0  0  0  0  0
   -1.1790    3.0353   -0.4731 O   0  0  0  0  0  0
   -3.5064   -4.3079    0.3982 O   0  0  0  0  0  0
    4.0077   -0.6064    0.1776 N   0  0  0  0  0  0
    5.7501    0.4221    1.3300 N   0  0  0  0  0  0
   -4.7231   -2.7598    1.5442 N   0  0  0  0  0  0
    3.5060    0.6791    0.7092 C   0  0  0  0  0  0
    2.3481    0.4757    1.7314 C   0  0  0  0  0  0
    3.0864    1.6576   -0.4281 C   0  0  0  0  0  0
    1.6342    1.7815    2.1307 C   0  0  0  0  0  0
    2.3391    2.9110    0.0701 C   0  0  0  0  0  0
    4.7234    1.2562    1.4397 C   0  0  0  0  0  0
    5.4146   -0.7613    0.5691 C   0  0  0  0  0  0
    3.3536   -1.5622   -0.5554 C   0  0  0  0  0  0
    0.3060    3.6797    1.2855 C   0  0  0  0  0  0
    7.0812    0.6168    1.8880 C   0  0  0  0  0  0
   -0.5302    4.1656    0.0915 C   0  0  0  0  0  0
    4.0330   -2.7438   -0.9572 C   0  0  0  0  0  0
    1.9947   -1.4366   -0.9465 C   0  0  0  0  0  0
    3.3884   -3.7472   -1.7060 C   0  0  0  0  0  0
    1.3463   -2.4388   -1.6935 C   0  0  0  0  0  0
    2.0418   -3.5972   -2.0752 C   0  0  0  0  0  0
   -1.7529    3.2075   -1.7104 C   0  0  0  0  0  0
   -1.6230    2.1713   -2.6650 C   0  0  0  0  0  0
   -2.4894    4.3693   -2.0431 C   0  0  0  0  0  0
   -0.8122    0.9249   -2.3488 C   0  0  0  0  0  0
   -2.2257    2.3030   -3.9340 C   0  0  0  0  0  0
   -3.0861    4.4952   -3.3119 C   0  0  0  0  0  0
   -2.9556    3.4618   -4.2573 C   0  0  0  0  0  0
   -1.5961   -0.1105   -1.5646 C   0  0  0  0  0  0
   -2.4576   -1.0005   -2.2378 C   0  0  0  0  0  0
   -1.4512   -0.2064   -0.1649 C   0  0  0  0  0  0
   -3.0420   -2.0629   -0.1145 C   0  0  0  0  0  0
   -3.1710   -1.9773   -1.5170 C   0  0  0  0  0  0
   -2.1638   -1.1830    0.5559 C   0  0  0  0  0  0
   -3.7825   -3.1315    0.6364 C   0  0  0  0  0  0
   -5.4180   -3.7692    2.3565 C   0  0  0  0  0  0
   -5.2084   -1.3840    1.7427 C   0  0  0  0  0  0
   -4.6344   -4.0919    3.6364 C   0  0  0  0  0  0
   -6.2352   -0.9848    0.6727 C   0  0  0  0  0  0
    2.7288   -0.0087    2.6322 H   0  0  0  0  0  0
    1.5933   -0.2107    1.3591 H   0  0  0  0  0  0
    2.4589    1.1696   -1.1679 H   0  0  0  0  0  0
    3.9671    1.9721   -0.9908 H   0  0  0  0  0  0
    2.2728    2.4120    2.7497 H   0  0  0  0  0  0
    0.7703    1.5269    2.7459 H   0  0  0  0  0  0
    1.9926    3.4665   -0.8005 H   0  0  0  0  0  0
    3.0055    3.5823    0.6120 H   0  0  0  0  0  0
    5.5537   -1.6483    1.1894 H   0  0  0  0  0  0
    6.0599   -0.8312   -0.3081 H   0  0  0  0  0  0
   -0.3875    3.3644    2.0664 H   0  0  0  0  0  0
    0.8936    4.4975    1.7051 H   0  0  0  0  0  0
    7.7341   -0.2231    1.6482 H   0  0  0  0  0  0
    7.5348    1.5239    1.4873 H   0  0  0  0  0  0
    7.0310    0.7078    2.9737 H   0  0  0  0  0  0
   -1.2634    4.8933    0.4403 H   0  0  0  0  0  0
    0.0951    4.6637   -0.6506 H   0  0  0  0  0  0
    5.0673   -2.9158   -0.7020 H   0  0  0  0  0  0
    1.4036   -0.5765   -0.6889 H   0  0  0  0  0  0
    3.9305   -4.6352   -1.9961 H   0  0  0  0  0  0
    0.3102   -2.3182   -1.9733 H   0  0  0  0  0  0
    1.5450   -4.3665   -2.6480 H   0  0  0  0  0  0
   -2.6191    5.1684   -1.3291 H   0  0  0  0  0  0
   -0.4571    0.4728   -3.2759 H   0  0  0  0  0  0
    0.0847    1.2061   -1.7970 H   0  0  0  0  0  0
   -2.1275    1.5152   -4.6666 H   0  0  0  0  0  0
   -3.6495    5.3833   -3.5579 H   0  0  0  0  0  0
   -3.4151    3.5576   -5.2302 H   0  0  0  0  0  0
   -2.5689   -0.9405   -3.3107 H   0  0  0  0  0  0
   -0.7877    0.4619    0.3618 H   0  0  0  0  0  0
   -3.8224   -2.6586   -2.0454 H   0  0  0  0  0  0
   -2.0330   -1.2550    1.6261 H   0  0  0  0  0  0
   -6.4172   -3.4199    2.6207 H   0  0  0  0  0  0
   -5.5847   -4.6837    1.7846 H   0  0  0  0  0  0
   -5.6703   -1.2943    2.7269 H   0  0  0  0  0  0
   -4.3936   -0.6635    1.7639 H   0  0  0  0  0  0
   -5.1653   -4.8285    4.2396 H   0  0  0  0  0  0
   -3.6498   -4.5003    3.4066 H   0  0  0  0  0  0
   -4.4938   -3.2006    4.2486 H   0  0  0  0  0  0
   -6.6137    0.0207    0.8573 H   0  0  0  0  0  0
   -5.7983   -0.9931   -0.3260 H   0  0  0  0  0  0
   -7.0878   -1.6645    0.6710 H   0  0  0  0  0  0
    1.1901    2.5385    0.9340 N   0  3  0  0  0  0
    0.6148    1.9058    0.3963 H   0  0  0  0  0  0
  1 12  2  0  0  0
  2 17  1  0  0  0
  2 23  1  0  0  0
  3 36  2  0  0  0
  4  7  1  0  0  0
  4 13  1  0  0  0
  4 14  1  0  0  0
  5 12  1  0  0  0
  5 13  1  0  0  0
  5 16  1  0  0  0
  6 36  1  0  0  0
  6 37  1  0  0  0
  6 38  1  0  0  0
  7  8  1  0  0  0
  7  9  1  0  0  0
  7 12  1  0  0  0
  8 10  1  0  0  0
  8 41  1  0  0  0
  8 42  1  0  0  0
  9 11  1  0  0  0
  9 43  1  0  0  0
  9 44  1  0  0  0
 10 45  1  0  0  0
 10 46  1  0  0  0
 10 83  1  0  0  0
 11 47  1  0  0  0
 11 48  1  0  0  0
 11 83  1  0  0  0
 13 49  1  0  0  0
 13 50  1  0  0  0
 14 18  2  0  0  0
 14 19  1  0  0  0
 15 17  1  0  0  0
 15 51  1  0  0  0
 15 52  1  0  0  0
 15 83  1  0  0  0
 16 53  1  0  0  0
 16 54  1  0  0  0
 16 55  1  0  0  0
 17 56  1  0  0  0
 17 57  1  0  0  0
 18 20  1  0  0  0
 18 58  1  0  0  0
 19 21  2  0  0  0
 19 59  1  0  0  0
 20 22  2  0  0  0
 20 60  1  0  0  0
 21 22  1  0  0  0
 21 61  1  0  0  0
 22 62  1  0  0  0
 23 24  1  0  0  0
 23 25  2  0  0  0
 24 26  1  0  0  0
 24 27  2  0  0  0
 25 28  1  0  0  0
 25 63  1  0  0  0
 26 30  1  0  0  0
 26 64  1  0  0  0
 26 65  1  0  0  0
 27 29  1  0  0  0
 27 66  1  0  0  0
 28 29  2  0  0  0
 28 67  1  0  0  0
 29 68  1  0  0  0
 30 31  2  0  0  0
 30 32  1  0  0  0
 31 34  1  0  0  0
 31 69  1  0  0  0
 32 35  2  0  0  0
 32 70  1  0  0  0
 33 34  2  0  0  0
 33 35  1  0  0  0
 33 36  1  0  0  0
 34 71  1  0  0  0
 35 72  1  0  0  0
 37 39  1  0  0  0
 37 73  1  0  0  0
 37 74  1  0  0  0
 38 40  1  0  0  0
 38 75  1  0  0  0
 38 76  1  0  0  0
 39 77  1  0  0  0
 39 78  1  0  0  0
 39 79  1  0  0  0
 40 80  1  0  0  0
 40 81  1  0  0  0
 40 82  1  0  0  0
 83 84  1  0  0  0
M  CHG  1  83   1
M  END
> <LID>
L020696

> <PC_CID>
22380688

> <Names>


> <CAS_Numbers>


$$$$
10481650
                    3D
 Structure written by MMmdl.
 72 75  0  0  1  0            999 V2000
   -9.1933    0.3375    0.1975 Cl  0  0  0  0  0  0
    4.6913    3.4226    0.5507 O   0  0  0  0  0  0
   -4.0340    1.8395   -2.4900 O   0  0  0  0  0  0
    6.4073    2.0658   -0.0842 N   0  0  0  0  0  0
   -2.8944    0.9075   -0.7431 N   0  0  0  0  0  0
    1.3426   -3.1417   -0.0997 C   0  0  0  0  0  0
    2.6196   -3.6288    0.5827 C   0  0  0  0  0  0
    0.3045   -4.2577   -0.2025 C   0  0  0  0  0  0
    2.3109   -4.2824    1.9396 C   0  0  0  0  0  0
    0.0502   -4.9086    1.1687 C   0  0  0  0  0  0
    1.1518   -1.8745   -0.5504 C   0  0  0  0  0  0
    2.1688   -0.8256   -0.3672 C   0  0  0  0  0  0
   -0.0745   -1.4723   -1.2614 C   0  0  0  0  0  0
    2.4368   -0.3021    0.9161 C   0  0  0  0  0  0
    2.8458   -0.2929   -1.4841 C   0  0  0  0  0  0
   -0.9238   -0.4917   -0.7058 C   0  0  0  0  0  0
   -0.3922   -2.0266   -2.5198 C   0  0  0  0  0  0
    4.0931    1.2264   -0.0300 C   0  0  0  0  0  0
   -2.0854   -0.0690   -1.3853 C   0  0  0  0  0  0
    3.3919    0.7188    1.0838 C   0  0  0  0  0  0
    3.8011    0.7281   -1.3179 C   0  0  0  0  0  0
   -1.5580   -1.6258   -3.1979 C   0  0  0  0  0  0
   -2.4072   -0.6558   -2.6327 C   0  0  0  0  0  0
    5.0961    2.3266    0.1612 C   0  0  0  0  0  0
    7.4177    3.1219    0.0791 C   0  0  0  0  0  0
    6.9640    0.7370   -0.3908 C   0  0  0  0  0  0
   -3.7912    1.7519   -1.2872 C   0  0  0  0  0  0
    7.8308    3.2982    1.5488 C   0  0  0  0  0  0
    7.3144    0.5758   -1.8789 C   0  0  0  0  0  0
   -4.5159    2.6786   -0.3085 C   0  0  0  0  0  0
   -5.4926    1.8972    0.5550 C   0  0  0  0  0  0
   -6.7514    1.5219    0.0382 C   0  0  0  0  0  0
   -5.1497    1.5460    1.8785 C   0  0  0  0  0  0
   -7.6578    0.7967    0.8363 C   0  0  0  0  0  0
   -6.0566    0.8213    2.6761 C   0  0  0  0  0  0
   -7.3101    0.4461    2.1554 C   0  0  0  0  0  0
    3.3579   -2.8400    0.7153 H   0  0  0  0  0  0
    3.0885   -4.3623   -0.0744 H   0  0  0  0  0  0
    0.6761   -5.0055   -0.9041 H   0  0  0  0  0  0
   -0.6462   -3.9082   -0.6016 H   0  0  0  0  0  0
    3.2206   -4.6952    2.3764 H   0  0  0  0  0  0
    1.9321   -3.5358    2.6391 H   0  0  0  0  0  0
   -0.4396   -4.1971    1.8353 H   0  0  0  0  0  0
   -0.6228   -5.7600    1.0642 H   0  0  0  0  0  0
    1.9076   -0.6837    1.7770 H   0  0  0  0  0  0
    2.6301   -0.6647   -2.4753 H   0  0  0  0  0  0
   -0.6758   -0.0566    0.2518 H   0  0  0  0  0  0
    0.2562   -2.7671   -2.9651 H   0  0  0  0  0  0
    3.5872    1.1084    2.0727 H   0  0  0  0  0  0
    4.2948    1.1364   -2.1866 H   0  0  0  0  0  0
   -1.8033   -2.0646   -4.1538 H   0  0  0  0  0  0
   -3.3029   -0.3853   -3.1700 H   0  0  0  0  0  0
   -2.7395    1.0135    0.2486 H   0  0  0  0  0  0
    8.3043    2.8909   -0.5118 H   0  0  0  0  0  0
    7.0463    4.0678   -0.3192 H   0  0  0  0  0  0
    7.8687    0.5917    0.2011 H   0  0  0  0  0  0
    6.3005   -0.0695   -0.0784 H   0  0  0  0  0  0
    8.5941    4.0706    1.6444 H   0  0  0  0  0  0
    6.9851    3.5936    2.1703 H   0  0  0  0  0  0
    8.2414    2.3752    1.9587 H   0  0  0  0  0  0
    7.7254   -0.4157   -2.0692 H   0  0  0  0  0  0
    6.4432    0.6957   -2.5199 H   0  0  0  0  0  0
    8.0604    1.3033   -2.1984 H   0  0  0  0  0  0
   -3.7859    3.1954    0.3160 H   0  0  0  0  0  0
   -5.0564    3.4492   -0.8603 H   0  0  0  0  0  0
   -7.0217    1.7876   -0.9737 H   0  0  0  0  0  0
   -4.1905    1.8301    2.2863 H   0  0  0  0  0  0
   -5.7908    0.5534    3.6882 H   0  0  0  0  0  0
   -8.0042   -0.1097    2.7686 H   0  0  0  0  0  0
    1.3119   -5.3627    1.7923 N   0  3  0  0  0  0
    1.1083   -5.7494    2.7031 H   0  0  0  0  0  0
    1.7103   -6.0887    1.2138 H   0  0  0  0  0  0
  1 34  1  0  0  0
  2 24  2  0  0  0
  3 27  2  0  0  0
  4 24  1  0  0  0
  4 25  1  0  0  0
  4 26  1  0  0  0
  5 19  1  0  0  0
  5 27  1  0  0  0
  5 53  1  0  0  0
  6  7  1  0  0  0
  6  8  1  0  0  0
  6 11  2  0  0  0
  7  9  1  0  0  0
  7 37  1  0  0  0
  7 38  1  0  0  0
  8 10  1  0  0  0
  8 39  1  0  0  0
  8 40  1  0  0  0
  9 41  1  0  0  0
  9 42  1  0  0  0
  9 70  1  0  0  0
 10 43  1  0  0  0
 10 44  1  0  0  0
 10 70  1  0  0  0
 11 12  1  0  0  0
 11 13  1  0  0  0
 12 14  2  0  0  0
 12 15  1  0  0  0
 13 16  2  0  0  0
 13 17  1  0  0  0
 14 20  1  0  0  0
 14 45  1  0  0  0
 15 21  2  0  0  0
 15 46  1  0  0  0
 16 19  1  0  0  0
 16 47  1  0  0  0
 17 22  2  0  0  0
 17 48  1  0  0  0
 18 20  2  0  0  0
 18 21  1  0  0  0
 18 24  1  0  0  0
 19 23  2  0  0  0
 20 49  1  0  0  0
 21 50  1  0  0  0
 22 23  1  0  0  0
 22 51  1  0  0  0
 23 52  1  0  0  0
 25 28  1  0  0  0
 25 54  1  0  0  0
 25 55  1  0  0  0
 26 29  1  0  0  0
 26 56  1  0  0  0
 26 57  1  0  0  0
 27 30  1  0  0  0
 28 58  1  0  0  0
 28 59  1  0  0  0
 28 60  1  0  0  0
 29 61  1  0  0  0
 29 62  1  0  0  0
 29 63  1  0  0  0
 30 31  1  0  0  0
 30 64  1  0  0  0
 30 65  1  0  0  0
 31 32  2  0  0  0
 31 33  1  0  0  0
 32 34  1  0  0  0
 32 66  1  0  0  0
 33 35  2  0  0  0
 33 67  1  0  0  0
 34 36  2  0  0  0
 35 36  1  0  0  0
 35 68  1  0  0  0
 36 69  1  0  0  0
 70 71  1  0  0  0
 70 72  1  0  0  0
M  CHG  1  70   1
M  END
> <LID>
L022978

> <PC_CID>
10481650

> <Names>


> <CAS_Numbers>


$$$$
9949205
                    3D
 Structure written by MMmdl.
 44 49  0  0  1  0            999 V2000
   -1.4235   -0.9943   -1.4352 O   0  0  0  0  0  0
    0.9116    2.7517   -0.4282 O   0  0  0  0  0  0
   -1.8048   -3.7759   -0.5086 O   0  0  0  0  0  0
   -3.3232    1.1766   -0.5465 N   0  0  0  0  0  0
   -3.9017    1.8287    0.4828 N   0  0  0  0  0  0
    0.4319    0.3731   -0.7737 C   0  0  1  0  0  0
    0.8103    1.5006    0.2384 C   0  0  1  0  0  0
    2.2196    1.1330    0.7817 C   0  0  1  0  0  0
   -1.0263    0.3851   -1.3403 C   0  0  2  0  0  0
    1.4663    0.3352   -1.9298 C   0  0  0  0  0  0
    0.4227   -0.9444   -0.0515 C   0  0  0  0  0  0
   -0.2505    1.7395    1.3560 C   0  0  0  0  0  0
    2.2302   -0.2452    1.5141 C   0  0  0  0  0  0
    2.9157    0.1999   -1.4275 C   0  0  0  0  0  0
    1.3006   -1.3350    0.9736 C   0  0  0  0  0  0
   -1.9638    1.0517   -0.3871 C   0  0  0  0  0  0
   -1.6421    1.6480    0.7927 C   0  0  0  0  0  0
   -0.6385   -1.6780   -0.5503 C   0  0  0  0  0  0
    4.6196    1.2006    0.0634 C   0  0  0  0  0  0
    1.1238   -2.6453    1.4660 C   0  0  0  0  0  0
   -0.7904   -2.9874   -0.0515 C   0  0  0  0  0  0
   -2.8915    2.1140    1.2942 C   0  0  0  0  0  0
    0.0991   -3.4715    0.9399 C   0  0  0  0  0  0
    2.5295    1.9000    1.4935 H   0  0  0  0  0  0
   -1.0821    0.8764   -2.3123 H   0  0  0  0  0  0
    1.3821    1.2443   -2.5266 H   0  0  0  0  0  0
    1.2428   -0.4852   -2.6132 H   0  0  0  0  0  0
   -0.0793    2.6950    1.8543 H   0  0  0  0  0  0
   -0.1425    0.9883    2.1375 H   0  0  0  0  0  0
    1.9197   -0.0795    2.5460 H   0  0  0  0  0  0
    3.2365   -0.6537    1.5916 H   0  0  0  0  0  0
    3.1091   -0.8130   -1.0729 H   0  0  0  0  0  0
    3.6015    0.3666   -2.2590 H   0  0  0  0  0  0
    0.0439    3.0226   -0.6910 H   0  0  0  0  0  0
    5.2548    1.4438   -0.7889 H   0  0  0  0  0  0
    4.7931    1.9583    0.8281 H   0  0  0  0  0  0
    4.9446    0.2362    0.4534 H   0  0  0  0  0  0
    1.7539   -3.0126    2.2627 H   0  0  0  0  0  0
   -3.8601    0.8269   -1.3277 H   0  0  0  0  0  0
   -3.0935    2.6458    2.2124 H   0  0  0  0  0  0
   -0.0278   -4.4716    1.3279 H   0  0  0  0  0  0
   -2.3382   -3.3401   -1.1559 H   0  0  0  0  0  0
    3.1974    1.1803   -0.3495 N   0  3  2  0  0  0
    3.0317    2.0859   -0.7679 H   0  0  0  0  0  0
  1  9  1  0  0  0
  1 18  1  0  0  0
  2  7  1  0  0  0
  2 34  1  0  0  0
  3 21  1  0  0  0
  3 42  1  0  0  0
  4  5  1  0  0  0
  4 16  1  0  0  0
  4 39  1  0  0  0
  5 22  2  0  0  0
  6  7  1  0  0  0
  6  9  1  0  0  0
  6 10  1  0  0  0
  6 11  1  0  0  0
  7  8  1  0  0  0
  7 12  1  0  0  0
  8 13  1  0  0  0
  8 24  1  0  0  0
  8 43  1  0  0  0
  9 16  1  0  0  0
  9 25  1  0  0  0
 10 14  1  0  0  0
 10 26  1  0  0  0
 10 27  1  0  0  0
 11 15  2  0  0  0
 11 18  1  0  0  0
 12 17  1  0  0  0
 12 28  1  0  0  0
 12 29  1  0  0  0
 13 15  1  0  0  0
 13 30  1  0  0  0
 13 31  1  0  0  0
 14 32  1  0  0  0
 14 33  1  0  0  0
 14 43  1  0  0  0
 15 20  1  0  0  0
 16 17  2  0  0  0
 17 22  1  0  0  0
 18 21  2  0  0  0
 19 35  1  0  0  0
 19 36  1  0  0  0
 19 37  1  0  0  0
 19 43  1  0  0  0
 20 23  2  0  0  0
 20 38  1  0  0  0
 21 23  1  0  0  0
 22 40  1  0  0  0
 23 41  1  0  0  0
 43 44  1  0  0  0
M  CHG  1  43   1
M  END
> <LID>
L022248

> <PC_CID>
9949205

> <Names>


> <CAS_Numbers>
259173-73-4;345238-02-0

$$$$
4422
                    3D
 Structure written by MMmdl.
 51 56  0  0  1  0            999 V2000
    2.5915    0.3441   -1.4323 O   0  0  0  0  0  0
   -0.9994    2.6910    0.1394 O   0  0  0  0  0  0
    4.0110   -2.2354   -1.0755 O   0  0  0  0  0  0
    0.4646    0.8115   -0.5016 C   0  0  2  0  0  0
   -0.3381    1.5226    0.6078 C   0  0  2  0  0  0
   -1.4068    0.4843    1.0846 C   0  0  2  0  0  0
    1.8048    1.4658   -0.9790 C   0  0  1  0  0  0
   -0.4673    0.5315   -1.7191 C   0  0  0  0  0  0
    1.0004   -0.5085   -0.0090 C   0  0  0  0  0  0
    0.5948    2.0509    1.7225 C   0  0  0  0  0  0
   -0.7349   -0.7385    1.7521 C   0  0  0  0  0  0
   -1.9744    0.4533   -1.3915 C   0  0  0  0  0  0
    0.4298   -1.3426    0.9683 C   0  0  0  0  0  0
    1.6931    2.9607    1.1472 C   0  0  0  0  0  0
   -3.6983   -0.1000    0.3141 C   0  0  0  0  0  0
    2.5469    2.2251    0.1285 C   0  0  0  0  0  0
   -4.4744   -1.1249   -0.4949 C   0  0  0  0  0  0
    2.1916   -0.7212   -0.6757 C   0  0  0  0  0  0
   -4.5522   -2.5669   -0.0488 C   0  0  0  0  0  0
   -5.7730   -1.6846    0.0393 C   0  0  0  0  0  0
    1.1006   -2.5617    1.2023 C   0  0  0  0  0  0
    2.8394   -1.9501   -0.4387 C   0  0  0  0  0  0
    3.8883    2.2185    0.2253 C   0  0  0  0  0  0
    2.2826   -2.8722    0.4830 C   0  0  0  0  0  0
   -2.0480    0.9706    1.8220 H   0  0  0  0  0  0
    1.6319    2.1729   -1.7908 H   0  0  0  0  0  0
   -0.1524   -0.3742   -2.2401 H   0  0  0  0  0  0
   -0.3562    1.3272   -2.4564 H   0  0  0  0  0  0
    1.0824    1.2316    2.2500 H   0  0  0  0  0  0
    0.0206    2.5913    2.4764 H   0  0  0  0  0  0
   -1.4710   -1.5211    1.9419 H   0  0  0  0  0  0
   -0.3572   -0.4587    2.7356 H   0  0  0  0  0  0
   -2.4348    1.4360   -1.4987 H   0  0  0  0  0  0
   -2.4548   -0.1741   -2.1412 H   0  0  0  0  0  0
   -4.1376    0.8881    0.1700 H   0  0  0  0  0  0
   -3.8212   -0.3479    1.3698 H   0  0  0  0  0  0
    2.3191    3.3353    1.9582 H   0  0  0  0  0  0
    1.2609    3.8396    0.6681 H   0  0  0  0  0  0
   -4.4705   -0.9498   -1.5684 H   0  0  0  0  0  0
   -1.3922    3.1356    0.8755 H   0  0  0  0  0  0
   -4.0612   -2.8386    0.8838 H   0  0  0  0  0  0
   -4.5393   -3.3326   -0.8219 H   0  0  0  0  0  0
   -6.5745   -1.8641   -0.6745 H   0  0  0  0  0  0
   -6.0946   -1.3719    1.0309 H   0  0  0  0  0  0
    0.7302   -3.2482    1.9495 H   0  0  0  0  0  0
    4.5037    1.6895   -0.4875 H   0  0  0  0  0  0
    4.3956    2.7463    1.0195 H   0  0  0  0  0  0
    2.7890   -3.8073    0.6731 H   0  0  0  0  0  0
    4.2867   -1.5392   -1.6525 H   0  0  0  0  0  0
   -2.2521   -0.0719   -0.0268 N   0  3  2  0  0  0
   -1.9729   -1.0417   -0.0725 H   0  0  0  0  0  0
  1  7  1  0  0  0
  1 18  1  0  0  0
  2  5  1  0  0  0
  2 40  1  0  0  0
  3 22  1  0  0  0
  3 49  1  0  0  0
  4  5  1  0  0  0
  4  7  1  0  0  0
  4  8  1  0  0  0
  4  9  1  0  0  0
  5  6  1  0  0  0
  5 10  1  0  0  0
  6 11  1  0  0  0
  6 25  1  0  0  0
  6 50  1  0  0  0
  7 16  1  0  0  0
  7 26  1  0  0  0
  8 12  1  0  0  0
  8 27  1  0  0  0
  8 28  1  0  0  0
  9 13  2  0  0  0
  9 18  1  0  0  0
 10 14  1  0  0  0
 10 29  1  0  0  0
 10 30  1  0  0  0
 11 13  1  0  0  0
 11 31  1  0  0  0
 11 32  1  0  0  0
 12 33  1  0  0  0
 12 34  1  0  0  0
 12 50  1  0  0  0
 13 21  1  0  0  0
 14 16  1  0  0  0
 14 37  1  0  0  0
 14 38  1  0  0  0
 15 17  1  0  0  0
 15 35  1  0  0  0
 15 36  1  0  0  0
 15 50  1  0  0  0
 16 23  2  0  0  0
 17 19  1  0  0  0
 17 20  1  0  0  0
 17 39  1  0  0  0
 18 22  2  0  0  0
 19 20  1  0  0  0
 19 41  1  0  0  0
 19 42  1  0  0  0
 20 43  1  0  0  0
 20 44  1  0  0  0
 21 24  2  0  0  0
 21 45  1  0  0  0
 22 24  1  0  0  0
 23 46  1  0  0  0
 23 47  1  0  0  0
 24 48  1  0  0  0
 50 51  1  0  0  0
M  CHG  1  50   1
M  END
> <LID>
L024021

> <PC_CID>
4422

> <Names>
nalmefene

> <CAS_Numbers>


$$$$
44212445
                    3D
 Structure written by MMmdl.
 58 63  0  0  1  0            999 V2000
    1.2050    1.8514    0.8341 O   0  0  0  0  0  0
    3.8880    3.3040    0.2590 O   0  0  0  0  0  0
   -2.4530   -0.6488    0.8319 O   0  0  0  0  0  0
   -2.1224    1.1940   -0.4675 N   0  0  0  0  0  0
   -6.2600    2.0379   -0.1417 N   0  0  0  0  0  0
    0.9365   -0.4817    0.5110 C   0  0  1  0  0  0
    0.3542   -1.5257   -0.4622 C   0  0  2  0  0  0
    0.1685    0.8696    0.6455 C   0  0  2  0  0  0
    1.3843   -2.6782   -0.5524 C   0  0  1  0  0  0
    1.0696   -1.1498    1.9032 C   0  0  0  0  0  0
    2.2775   -0.0113    0.0331 C   0  0  0  0  0  0
   -0.0993   -0.9619   -1.8320 C   0  0  0  0  0  0
   -0.6629    1.2573   -0.6128 C   0  0  1  0  0  0
   -0.1836    0.5740   -1.9098 C   0  0  0  0  0  0
    2.7729   -2.1888   -1.0674 C   0  0  0  0  0  0
    1.9146   -2.4369    1.8702 C   0  0  0  0  0  0
    3.2308   -0.7940   -0.6355 C   0  0  0  0  0  0
    2.3677    1.3373    0.3284 C   0  0  0  0  0  0
    2.1654   -4.6452    0.7857 C   0  0  0  0  0  0
    4.4415   -0.1456   -0.9459 C   0  0  0  0  0  0
    3.6013    1.9758    0.0222 C   0  0  0  0  0  0
    4.6257    1.2145   -0.5977 C   0  0  0  0  0  0
   -2.8882    0.3075    0.1938 C   0  0  0  0  0  0
   -4.3687    0.5152    0.0602 C   0  0  0  0  0  0
    2.9187    4.1078    0.9128 C   0  0  0  0  0  0
   -5.2516   -0.5867    0.0803 C   0  0  0  0  0  0
   -4.9333    1.8083   -0.0412 C   0  0  0  0  0  0
   -6.6367   -0.3558   -0.0233 C   0  0  0  0  0  0
   -7.0889    0.9731   -0.1342 C   0  0  0  0  0  0
   -0.5441   -1.9437   -0.0108 H   0  0  0  0  0  0
   -0.4595    0.8912    1.5366 H   0  0  0  0  0  0
    1.0044   -3.4299   -1.2462 H   0  0  0  0  0  0
    0.0745   -1.3920    2.2798 H   0  0  0  0  0  0
    1.4998   -0.4521    2.6232 H   0  0  0  0  0  0
   -1.0807   -1.3780   -2.0635 H   0  0  0  0  0  0
    0.5529   -1.3118   -2.6321 H   0  0  0  0  0  0
   -0.5020    2.3258   -0.7629 H   0  0  0  0  0  0
    0.8086    0.9584   -2.1492 H   0  0  0  0  0  0
   -0.8122    0.8682   -2.7511 H   0  0  0  0  0  0
    2.7337   -2.1568   -2.1564 H   0  0  0  0  0  0
    3.5633   -2.9022   -0.8398 H   0  0  0  0  0  0
    2.9717   -2.2005    1.7436 H   0  0  0  0  0  0
    1.8302   -2.9492    2.8293 H   0  0  0  0  0  0
   -2.6221    1.9176   -0.9632 H   0  0  0  0  0  0
    2.0012   -5.1593    1.7332 H   0  0  0  0  0  0
    1.7905   -5.2922   -0.0080 H   0  0  0  0  0  0
    3.2412   -4.5282    0.6562 H   0  0  0  0  0  0
    5.2211   -0.6774   -1.4715 H   0  0  0  0  0  0
    5.5607    1.6955   -0.8451 H   0  0  0  0  0  0
    3.3261    5.1073    1.0640 H   0  0  0  0  0  0
    2.0156    4.2108    0.3102 H   0  0  0  0  0  0
    2.6614    3.7071    1.8941 H   0  0  0  0  0  0
   -4.8791   -1.5971    0.1694 H   0  0  0  0  0  0
   -4.3101    2.6908   -0.0396 H   0  0  0  0  0  0
   -7.3367   -1.1782   -0.0162 H   0  0  0  0  0  0
   -8.1445    1.1865   -0.2153 H   0  0  0  0  0  0
    1.4617   -3.3418    0.7845 N   0  3  2  0  0  0
    0.5034   -3.5675    1.0115 H   0  0  0  0  0  0
  1  8  1  0  0  0
  1 18  1  0  0  0
  2 21  1  0  0  0
  2 25  1  0  0  0
  3 23  2  0  0  0
  4 13  1  0  0  0
  4 23  1  0  0  0
  4 44  1  0  0  0
  5 27  1  0  0  0
  5 29  2  0  0  0
  6  7  1  0  0  0
  6  8  1  0  0  0
  6 10  1  0  0  0
  6 11  1  0  0  0
  7  9  1  0  0  0
  7 12  1  0  0  0
  7 30  1  0  0  0
  8 13  1  0  0  0
  8 31  1  0  0  0
  9 15  1  0  0  0
  9 32  1  0  0  0
  9 57  1  0  0  0
 10 16  1  0  0  0
 10 33  1  0  0  0
 10 34  1  0  0  0
 11 17  2  0  0  0
 11 18  1  0  0  0
 12 14  1  0  0  0
 12 35  1  0  0  0
 12 36  1  0  0  0
 13 14  1  0  0  0
 13 37  1  0  0  0
 14 38  1  0  0  0
 14 39  1  0  0  0
 15 17  1  0  0  0
 15 40  1  0  0  0
 15 41  1  0  0  0
 16 42  1  0  0  0
 16 43  1  0  0  0
 16 57  1  0  0  0
 17 20  1  0  0  0
 18 21  2  0  0  0
 19 45  1  0  0  0
 19 46  1  0  0  0
 19 47  1  0  0  0
 19 57  1  0  0  0
 20 22  2  0  0  0
 20 48  1  0  0  0
 21 22  1  0  0  0
 22 49  1  0  0  0
 23 24  1  0  0  0
 24 26  1  0  0  0
 24 27  2  0  0  0
 25 50  1  0  0  0
 25 51  1  0  0  0
 25 52  1  0  0  0
 26 28  2  0  0  0
 26 53  1  0  0  0
 27 54  1  0  0  0
 28 29  1  0  0  0
 28 55  1  0  0  0
 29 56  1  0  0  0
 57 58  1  0  0  0
M  CHG  1  57   1
M  END
> <LID>
L012402

> <PC_CID>
44212445

> <Names>


> <CAS_Numbers>


$$$$
44212444
                    3D
 Structure written by MMmdl.
 55 60  0  0  1  0            999 V2000
    1.1015    2.1118    0.9759 O   0  0  0  0  0  0
    3.5017    3.7944    0.5673 O   0  0  0  0  0  0
   -2.2656   -0.7478    0.8716 O   0  0  0  0  0  0
   -2.1245    1.1287   -0.4156 N   0  0  0  0  0  0
   -6.3422    1.4547   -0.2173 N   0  0  0  0  0  0
    1.0654   -0.2368    0.5727 C   0  0  1  0  0  0
    0.6161   -1.2848   -0.4645 C   0  0  2  0  0  0
    0.1706    1.0353    0.7389 C   0  0  2  0  0  0
    1.7531   -2.3327   -0.5650 C   0  0  1  0  0  0
    1.2206   -0.9507    1.9396 C   0  0  0  0  0  0
    2.3684    0.3727    0.1551 C   0  0  0  0  0  0
    0.1605   -0.7019   -1.8256 C   0  0  0  0  0  0
   -0.6808    1.3767   -0.5193 C   0  0  1  0  0  0
   -0.0964    0.8171   -1.8322 C   0  0  0  0  0  0
    3.1094   -1.6976   -1.0058 C   0  0  0  0  0  0
    2.1814   -2.1528    1.8821 C   0  0  0  0  0  0
    3.4164   -0.2829   -0.5097 C   0  0  0  0  0  0
    2.3140    1.7094    0.4939 C   0  0  0  0  0  0
    2.6639   -4.2808    0.7177 C   0  0  0  0  0  0
    4.5652    0.4974   -0.7594 C   0  0  0  0  0  0
    3.4746    2.4696    0.2450 C   0  0  0  0  0  0
    4.6003    1.8582   -0.3622 C   0  0  0  0  0  0
   -2.7947    0.1511    0.2211 C   0  0  0  0  0  0
   -4.2847    0.1755    0.0414 C   0  0  0  0  0  0
   -5.0252   -1.0268    0.0321 C   0  0  0  0  0  0
   -5.0011    1.3898   -0.0756 C   0  0  0  0  0  0
   -6.4244   -0.9678   -0.1145 C   0  0  0  0  0  0
   -7.0334    0.2958   -0.2375 C   0  0  0  0  0  0
   -0.2549   -1.8029   -0.0666 H   0  0  0  0  0  0
   -0.4670    0.9691    1.6208 H   0  0  0  0  0  0
    1.4680   -3.0839   -1.3032 H   0  0  0  0  0  0
    0.2420   -1.2990    2.2736 H   0  0  0  0  0  0
    1.5636   -0.2488    2.7011 H   0  0  0  0  0  0
   -0.7547   -1.2136   -2.1258 H   0  0  0  0  0  0
    0.8836   -0.9309   -2.6083 H   0  0  0  0  0  0
   -0.6496    2.4627   -0.6176 H   0  0  0  0  0  0
    0.8511    1.3221   -2.0234 H   0  0  0  0  0  0
   -0.7338    1.0808   -2.6770 H   0  0  0  0  0  0
    3.1086   -1.6293   -2.0940 H   0  0  0  0  0  0
    3.9546   -2.3420   -0.7696 H   0  0  0  0  0  0
    3.2155   -1.8159    1.8015 H   0  0  0  0  0  0
    2.1157   -2.7128    2.8157 H   0  0  0  0  0  0
   -2.6962    1.7864   -0.9251 H   0  0  0  0  0  0
    2.5163   -4.8486    1.6369 H   0  0  0  0  0  0
    2.3740   -4.9228   -0.1146 H   0  0  0  0  0  0
    3.7285   -4.0639    0.6316 H   0  0  0  0  0  0
    5.4090    0.0667   -1.2780 H   0  0  0  0  0  0
    5.4837    2.4467   -0.5624 H   0  0  0  0  0  0
    2.6924    4.0871    0.9584 H   0  0  0  0  0  0
   -4.5339   -1.9841    0.1313 H   0  0  0  0  0  0
   -4.4918    2.3423   -0.0530 H   0  0  0  0  0  0
   -7.0175   -1.8702   -0.1307 H   0  0  0  0  0  0
   -8.1042    0.3780   -0.3513 H   0  0  0  0  0  0
    1.8465   -3.0458    0.7450 N   0  3  2  0  0  0
    0.9055   -3.3651    0.9280 H   0  0  0  0  0  0
  1  8  1  0  0  0
  1 18  1  0  0  0
  2 21  1  0  0  0
  2 49  1  0  0  0
  3 23  2  0  0  0
  4 13  1  0  0  0
  4 23  1  0  0  0
  4 43  1  0  0  0
  5 26  1  0  0  0
  5 28  2  0  0  0
  6  7  1  0  0  0
  6  8  1  0  0  0
  6 10  1  0  0  0
  6 11  1  0  0  0
  7  9  1  0  0  0
  7 12  1  0  0  0
  7 29  1  0  0  0
  8 13  1  0  0  0
  8 30  1  0  0  0
  9 15  1  0  0  0
  9 31  1  0  0  0
  9 54  1  0  0  0
 10 16  1  0  0  0
 10 32  1  0  0  0
 10 33  1  0  0  0
 11 17  2  0  0  0
 11 18  1  0  0  0
 12 14  1  0  0  0
 12 34  1  0  0  0
 12 35  1  0  0  0
 13 14  1  0  0  0
 13 36  1  0  0  0
 14 37  1  0  0  0
 14 38  1  0  0  0
 15 17  1  0  0  0
 15 39  1  0  0  0
 15 40  1  0  0  0
 16 41  1  0  0  0
 16 42  1  0  0  0
 16 54  1  0  0  0
 17 20  1  0  0  0
 18 21  2  0  0  0
 19 44  1  0  0  0
 19 45  1  0  0  0
 19 46  1  0  0  0
 19 54  1  0  0  0
 20 22  2  0  0  0
 20 47  1  0  0  0
 21 22  1  0  0  0
 22 48  1  0  0  0
 23 24  1  0  0  0
 24 25  1  0  0  0
 24 26  2  0  0  0
 25 27  2  0  0  0
 25 50  1  0  0  0
 26 51  1  0  0  0
 27 28  1  0  0  0
 27 52  1  0  0  0
 28 53  1  0  0  0
 54 55  1  0  0  0
M  CHG  1  54   1
M  END
> <LID>
L012401

> <PC_CID>
44212444

> <Names>


> <CAS_Numbers>


$$$$
9820911
                    3D
 Structure written by MMmdl.
 53 55  0  0  1  0            999 V2000
   -6.8437    1.0185    0.6829 O   0  0  0  0  0  0
    1.5320    3.3834    3.1343 O   0  0  0  0  0  0
   -1.4792   -0.9312    0.3932 C   0  0  1  0  0  0
   -1.4466   -2.4345    0.0544 C   0  0  0  0  0  0
   -0.6330   -0.0910   -0.5851 C   0  0  0  0  0  0
   -0.0620   -3.0885    0.1969 C   0  0  0  0  0  0
    0.9903   -2.5483   -0.7865 C   0  0  0  0  0  0
    0.8470   -0.0926   -0.2343 C   0  0  0  0  0  0
    1.5931   -1.2182   -0.3436 C   0  0  0  0  0  0
   -2.9103   -0.4130    0.4672 C   0  0  0  0  0  0
    3.0766   -1.2737    0.0262 C   0  0  0  0  0  0
    1.4475    1.1843    0.1802 C   0  0  0  0  0  0
   -3.4320    0.0588    1.6914 C   0  0  0  0  0  0
   -3.7270   -0.3973   -0.6852 C   0  0  0  0  0  0
    1.2026    1.6798    1.4771 C   0  0  0  0  0  0
    2.2277    1.9303   -0.7277 C   0  0  0  0  0  0
   -4.7540    0.5395    1.7625 C   0  0  0  0  0  0
   -5.0490    0.0833   -0.6143 C   0  0  0  0  0  0
    5.3423   -0.6387   -0.6790 C   0  0  0  0  0  0
    3.9580   -1.9723   -2.1974 C   0  0  0  0  0  0
   -5.5636    0.5521    0.6103 C   0  0  0  0  0  0
    1.7621    2.9095    1.8759 C   0  0  0  0  0  0
    2.7865    3.1592   -0.3263 C   0  0  0  0  0  0
    2.5566    3.6473    0.9752 C   0  0  0  0  0  0
   -1.0559   -0.8077    1.3915 H   0  0  0  0  0  0
   -1.8295   -2.6031   -0.9528 H   0  0  0  0  0  0
   -2.1315   -2.9566    0.7241 H   0  0  0  0  0  0
   -0.9677    0.9473   -0.5515 H   0  0  0  0  0  0
   -0.7839   -0.4093   -1.6173 H   0  0  0  0  0  0
   -0.1794   -4.1578    0.0183 H   0  0  0  0  0  0
    0.2980   -2.9972    1.2226 H   0  0  0  0  0  0
    0.5632   -2.4445   -1.7846 H   0  0  0  0  0  0
    1.7831   -3.2901   -0.8841 H   0  0  0  0  0  0
    3.2665   -0.5642    0.8324 H   0  0  0  0  0  0
    3.3285   -2.2498    0.4434 H   0  0  0  0  0  0
   -2.8224    0.0554    2.5831 H   0  0  0  0  0  0
   -3.3418   -0.7536   -1.6293 H   0  0  0  0  0  0
    0.5910    1.1165    2.1673 H   0  0  0  0  0  0
    2.3962    1.5667   -1.7308 H   0  0  0  0  0  0
   -5.1456    0.8987    2.7029 H   0  0  0  0  0  0
   -5.6638    0.0902   -1.5024 H   0  0  0  0  0  0
    5.9609   -0.3341   -1.5239 H   0  0  0  0  0  0
    5.3401    0.1835    0.0377 H   0  0  0  0  0  0
    5.8097   -1.5040   -0.2069 H   0  0  0  0  0  0
    4.6483   -1.6951   -2.9949 H   0  0  0  0  0  0
    4.2561   -2.9498   -1.8158 H   0  0  0  0  0  0
    2.9711   -2.0622   -2.6500 H   0  0  0  0  0  0
    3.3873    3.7310   -1.0182 H   0  0  0  0  0  0
    2.9869    4.5915    1.2757 H   0  0  0  0  0  0
   -7.3004    0.9834   -0.1435 H   0  0  0  0  0  0
    1.9415    4.2187    3.3001 H   0  0  0  0  0  0
    3.9660   -0.9547   -1.1211 N   0  3  0  0  0  0
    3.6062   -0.1034   -1.5286 H   0  0  0  0  0  0
  1 21  1  0  0  0
  1 50  1  0  0  0
  2 22  1  0  0  0
  2 51  1  0  0  0
  3  4  1  0  0  0
  3  5  1  0  0  0
  3 10  1  0  0  0
  3 25  1  0  0  0
  4  6  1  0  0  0
  4 26  1  0  0  0
  4 27  1  0  0  0
  5  8  1  0  0  0
  5 28  1  0  0  0
  5 29  1  0  0  0
  6  7  1  0  0  0
  6 30  1  0  0  0
  6 31  1  0  0  0
  7  9  1  0  0  0
  7 32  1  0  0  0
  7 33  1  0  0  0
  8  9  2  0  0  0
  8 12  1  0  0  0
  9 11  1  0  0  0
 10 13  2  0  0  0
 10 14  1  0  0  0
 11 34  1  0  0  0
 11 35  1  0  0  0
 11 52  1  0  0  0
 12 15  2  0  0  0
 12 16  1  0  0  0
 13 17  1  0  0  0
 13 36  1  0  0  0
 14 18  2  0  0  0
 14 37  1  0  0  0
 15 22  1  0  0  0
 15 38  1  0  0  0
 16 23  2  0  0  0
 16 39  1  0  0  0
 17 21  2  0  0  0
 17 40  1  0  0  0
 18 21  1  0  0  0
 18 41  1  0  0  0
 19 42  1  0  0  0
 19 43  1  0  0  0
 19 44  1  0  0  0
 19 52  1  0  0  0
 20 45  1  0  0  0
 20 46  1  0  0  0
 20 47  1  0  0  0
 20 52  1  0  0  0
 22 24  2  0  0  0
 23 24  1  0  0  0
 23 48  1  0  0  0
 24 49  1  0  0  0
 52 53  1  0  0  0
M  CHG  1  52   1
M  END
> <LID>
L019791

> <PC_CID>
9820911

> <Names>


> <CAS_Numbers>


$$$$
11260656
                    3D
 Structure written by MMmdl.
 69 72  0  0  1  0            999 V2000
   -6.5615   -5.5085    1.4452 Cl  0  0  0  0  0  0
   -5.6768   -3.3591    0.0677 O   0  0  0  0  0  0
    5.9684   -0.3279   -0.0761 O   0  0  0  0  0  0
   -0.3842    7.5495   -1.2481 O   0  0  0  0  0  0
    5.1856   -2.4519    0.1794 N   0  0  0  0  0  0
   -0.5585    7.6906    0.9879 N   0  0  0  0  0  0
   -3.7637    0.4107   -0.5386 C   0  0  0  0  0  0
   -2.4040   -1.6451   -0.6077 C   0  0  0  0  0  0
   -2.8327    1.0183    0.5226 C   0  0  0  0  0  0
   -1.4372   -1.0736    0.4438 C   0  0  0  0  0  0
   -1.4220    0.4511    0.4063 C   0  0  0  0  0  0
   -4.7539   -1.6715   -1.4064 C   0  0  0  0  0  0
   -0.2994    1.2044    0.2760 C   0  0  0  0  0  0
    1.0424    0.5991    0.2263 C   0  0  0  0  0  0
   -0.3551    2.6728    0.1800 C   0  0  0  0  0  0
   -5.0248   -3.1090   -1.1049 C   0  0  0  0  0  0
    1.8273    0.7129   -0.9403 C   0  0  0  0  0  0
    1.5775   -0.0583    1.3552 C   0  0  0  0  0  0
   -0.8989    3.2981   -0.9621 C   0  0  0  0  0  0
    0.1847    3.4710    1.2095 C   0  0  0  0  0  0
   -4.7401   -4.2794   -1.7594 C   0  0  0  0  0  0
    3.6370   -0.5376    0.1269 C   0  0  0  0  0  0
    3.1177    0.1515   -0.9892 C   0  0  0  0  0  0
    2.8676   -0.6203    1.3080 C   0  0  0  0  0  0
   -0.9277    4.7024   -1.0606 C   0  0  0  0  0  0
    0.1576    4.8758    1.1128 C   0  0  0  0  0  0
   -5.2490   -5.3336   -0.9497 C   0  0  0  0  0  0
   -0.4111    5.5045   -0.0192 C   0  0  0  0  0  0
   -5.7981   -4.7093    0.1305 C   0  0  0  0  0  0
    5.0256   -1.1066    0.0701 C   0  0  0  0  0  0
    6.5308   -3.0448    0.2043 C   0  0  0  0  0  0
    4.0902   -3.4358    0.1832 C   0  0  0  0  0  0
   -0.4289    7.0013   -0.1488 C   0  0  0  0  0  0
    7.0942   -3.0905    1.6315 C   0  0  0  0  0  0
    3.5711   -3.7132   -1.2353 C   0  0  0  0  0  0
   -3.4514    0.7293   -1.5346 H   0  0  0  0  0  0
   -4.7748    0.7907   -0.3869 H   0  0  0  0  0  0
   -2.0244   -1.4378   -1.6096 H   0  0  0  0  0  0
   -2.4360   -2.7298   -0.5023 H   0  0  0  0  0  0
   -2.8598    2.1044    0.4568 H   0  0  0  0  0  0
   -3.2092    0.7750    1.5170 H   0  0  0  0  0  0
   -1.7477   -1.3880    1.4410 H   0  0  0  0  0  0
   -0.4511   -1.5052    0.2799 H   0  0  0  0  0  0
   -5.6952   -1.1238   -1.3433 H   0  0  0  0  0  0
   -4.4010   -1.5607   -2.4328 H   0  0  0  0  0  0
    1.4400    1.2328   -1.8045 H   0  0  0  0  0  0
    0.9977   -0.1309    2.2639 H   0  0  0  0  0  0
   -1.2962    2.6993   -1.7686 H   0  0  0  0  0  0
    0.6248    3.0056    2.0795 H   0  0  0  0  0  0
   -4.2267   -4.3663   -2.7057 H   0  0  0  0  0  0
    3.7062    0.2479   -1.8904 H   0  0  0  0  0  0
    3.2645   -1.1143    2.1833 H   0  0  0  0  0  0
   -1.3506    5.1602   -1.9435 H   0  0  0  0  0  0
    0.5858    5.4610    1.9135 H   0  0  0  0  0  0
   -5.2163   -6.3977   -1.1321 H   0  0  0  0  0  0
    6.5073   -4.0540   -0.2094 H   0  0  0  0  0  0
    7.2132   -2.4935   -0.4449 H   0  0  0  0  0  0
    4.4373   -4.3724    0.6220 H   0  0  0  0  0  0
    3.2689   -3.1287    0.8272 H   0  0  0  0  0  0
    8.0842   -3.5465    1.6422 H   0  0  0  0  0  0
    7.1866   -2.0894    2.0538 H   0  0  0  0  0  0
    6.4522   -3.6751    2.2910 H   0  0  0  0  0  0
    2.7895   -4.4728   -1.2183 H   0  0  0  0  0  0
    3.1490   -2.8174   -1.6909 H   0  0  0  0  0  0
    4.3698   -4.0743   -1.8838 H   0  0  0  0  0  0
   -0.5982    8.6987    0.9557 H   0  0  0  0  0  0
   -0.6240    7.2036    1.8693 H   0  0  0  0  0  0
   -3.7702   -1.0728   -0.4707 N   0  3  2  0  0  0
   -4.0900   -1.3104    0.4578 H   0  0  0  0  0  0
  1 29  1  0  0  0
  2 16  1  0  0  0
  2 29  1  0  0  0
  3 30  2  0  0  0
  4 33  2  0  0  0
  5 30  1  0  0  0
  5 31  1  0  0  0
  5 32  1  0  0  0
  6 33  1  0  0  0
  6 66  1  0  0  0
  6 67  1  0  0  0
  7  9  1  0  0  0
  7 36  1  0  0  0
  7 37  1  0  0  0
  7 68  1  0  0  0
  8 10  1  0  0  0
  8 38  1  0  0  0
  8 39  1  0  0  0
  8 68  1  0  0  0
  9 11  1  0  0  0
  9 40  1  0  0  0
  9 41  1  0  0  0
 10 11  1  0  0  0
 10 42  1  0  0  0
 10 43  1  0  0  0
 11 13  2  0  0  0
 12 16  1  0  0  0
 12 44  1  0  0  0
 12 45  1  0  0  0
 12 68  1  0  0  0
 13 14  1  0  0  0
 13 15  1  0  0  0
 14 17  2  0  0  0
 14 18  1  0  0  0
 15 19  2  0  0  0
 15 20  1  0  0  0
 16 21  2  0  0  0
 17 23  1  0  0  0
 17 46  1  0  0  0
 18 24  2  0  0  0
 18 47  1  0  0  0
 19 25  1  0  0  0
 19 48  1  0  0  0
 20 26  2  0  0  0
 20 49  1  0  0  0
 21 27  1  0  0  0
 21 50  1  0  0  0
 22 23  2  0  0  0
 22 24  1  0  0  0
 22 30  1  0  0  0
 23 51  1  0  0  0
 24 52  1  0  0  0
 25 28  2  0  0  0
 25 53  1  0  0  0
 26 28  1  0  0  0
 26 54  1  0  0  0
 27 29  2  0  0  0
 27 55  1  0  0  0
 28 33  1  0  0  0
 31 34  1  0  0  0
 31 56  1  0  0  0
 31 57  1  0  0  0
 32 35  1  0  0  0
 32 58  1  0  0  0
 32 59  1  0  0  0
 34 60  1  0  0  0
 34 61  1  0  0  0
 34 62  1  0  0  0
 35 63  1  0  0  0
 35 64  1  0  0  0
 35 65  1  0  0  0
 68 69  1  0  0  0
M  CHG  1  68   1
M  END
> <LID>
L023457

> <PC_CID>
11260656

> <Names>


> <CAS_Numbers>


$$$$
9825930
                    3D
 Structure written by MMmdl.
 71 74  0  0  1  0            999 V2000
    3.5225    3.8625   -1.3710 O   0  0  0  0  0  0
    3.8787   -3.4244   -0.8128 O   0  0  0  0  0  0
    4.8679    2.3726   -0.2909 N   0  0  0  0  0  0
    3.5196   -5.2729    0.4136 N   0  0  0  0  0  0
   -0.8647   -0.9874   -0.5643 C   0  0  0  0  0  0
   -1.8057   -0.8695   -1.8016 C   0  0  0  0  0  0
   -1.8111   -0.7293    0.6462 C   0  0  0  0  0  0
   -2.5052    0.5019   -1.8870 C   0  0  0  0  0  0
   -2.5224    0.6380    0.5726 C   0  0  0  0  0  0
    0.2830    0.0569   -0.6292 C   0  0  0  0  0  0
   -0.2932   -2.4233   -0.4735 C   0  0  0  0  0  0
   -4.0713    2.0400   -0.7727 C   0  0  0  0  0  0
    1.1024   -2.6787   -0.4105 C   0  0  0  0  0  0
    0.8298    0.6246    0.5499 C   0  0  0  0  0  0
    0.8790    0.4082   -1.8672 C   0  0  0  0  0  0
   -1.1684   -3.5367   -0.4461 C   0  0  0  0  0  0
   -5.1763    2.1406    0.2641 C   0  0  0  0  0  0
    1.6127   -3.9928   -0.3228 C   0  0  0  0  0  0
    1.9192    1.5135    0.4930 C   0  0  0  0  0  0
    1.9679    1.2974   -1.9259 C   0  0  0  0  0  0
   -0.6714   -4.8507   -0.3715 C   0  0  0  0  0  0
    2.5109    1.8365   -0.7444 C   0  0  0  0  0  0
    0.7138   -5.0816   -0.3154 C   0  0  0  0  0  0
   -5.0008    2.9328    1.4190 C   0  0  0  0  0  0
   -6.3875    1.4418    0.0745 C   0  0  0  0  0  0
    3.6818    2.7722   -0.8209 C   0  0  0  0  0  0
    3.0989   -4.2132   -0.2821 C   0  0  0  0  0  0
   -6.0272    3.0202    2.3796 C   0  0  0  0  0  0
   -7.4134    1.5302    1.0356 C   0  0  0  0  0  0
   -7.2332    2.3187    2.1884 C   0  0  0  0  0  0
    6.0312    3.2714   -0.3012 C   0  0  0  0  0  0
    5.1421    1.0320    0.2549 C   0  0  0  0  0  0
    6.0474    4.1786    0.9370 C   0  0  0  0  0  0
    5.4018    0.0016   -0.8546 C   0  0  0  0  0  0
   -1.2795   -1.0867   -2.7299 H   0  0  0  0  0  0
   -2.5907   -1.6241   -1.7562 H   0  0  0  0  0  0
   -2.5885   -1.4927    0.6843 H   0  0  0  0  0  0
   -1.2859   -0.8351    1.5945 H   0  0  0  0  0  0
   -1.7804    1.3057   -2.0216 H   0  0  0  0  0  0
   -3.1510    0.5165   -2.7659 H   0  0  0  0  0  0
   -3.1744    0.7347    1.4406 H   0  0  0  0  0  0
   -1.8063    1.4580    0.6314 H   0  0  0  0  0  0
   -3.3855    2.8840   -0.6817 H   0  0  0  0  0  0
   -4.5330    2.1219   -1.7579 H   0  0  0  0  0  0
    1.8175   -1.8706   -0.4237 H   0  0  0  0  0  0
    0.4433    0.3789    1.5255 H   0  0  0  0  0  0
    0.5334   -0.0126   -2.7974 H   0  0  0  0  0  0
   -2.2383   -3.4016   -0.4848 H   0  0  0  0  0  0
    2.3124    1.9311    1.4089 H   0  0  0  0  0  0
    2.4036    1.5424   -2.8841 H   0  0  0  0  0  0
   -1.3567   -5.6855   -0.3604 H   0  0  0  0  0  0
    1.0738   -6.0992   -0.2712 H   0  0  0  0  0  0
   -4.0787    3.4738    1.5744 H   0  0  0  0  0  0
   -6.5344    0.8355   -0.8075 H   0  0  0  0  0  0
   -5.8898    3.6260    3.2633 H   0  0  0  0  0  0
   -8.3393    0.9937    0.8884 H   0  0  0  0  0  0
   -8.0203    2.3865    2.9250 H   0  0  0  0  0  0
    6.9552    2.6926   -0.3404 H   0  0  0  0  0  0
    6.0457    3.8811   -1.2063 H   0  0  0  0  0  0
    6.0143    1.0714    0.9090 H   0  0  0  0  0  0
    4.3396    0.6870    0.9037 H   0  0  0  0  0  0
    4.5093   -5.4550    0.4920 H   0  0  0  0  0  0
    2.8502   -5.8797    0.8631 H   0  0  0  0  0  0
    6.9219    4.8294    0.9283 H   0  0  0  0  0  0
    5.1623    4.8144    0.9746 H   0  0  0  0  0  0
    6.0790    3.5924    1.8558 H   0  0  0  0  0  0
    5.6471   -0.9710   -0.4274 H   0  0  0  0  0  0
    4.5283   -0.1343   -1.4922 H   0  0  0  0  0  0
    6.2357    0.3053   -1.4879 H   0  0  0  0  0  0
   -3.3223    0.7622   -0.6749 N   0  3  0  0  0  0
   -4.0183    0.0308   -0.6430 H   0  0  0  0  0  0
  1 26  2  0  0  0
  2 27  2  0  0  0
  3 26  1  0  0  0
  3 31  1  0  0  0
  3 32  1  0  0  0
  4 27  1  0  0  0
  4 62  1  0  0  0
  4 63  1  0  0  0
  5  6  1  0  0  0
  5  7  1  0  0  0
  5 10  1  0  0  0
  5 11  1  0  0  0
  6  8  1  0  0  0
  6 35  1  0  0  0
  6 36  1  0  0  0
  7  9  1  0  0  0
  7 37  1  0  0  0
  7 38  1  0  0  0
  8 39  1  0  0  0
  8 40  1  0  0  0
  8 70  1  0  0  0
  9 41  1  0  0  0
  9 42  1  0  0  0
  9 70  1  0  0  0
 10 14  2  0  0  0
 10 15  1  0  0  0
 11 13  1  0  0  0
 11 16  2  0  0  0
 12 17  1  0  0  0
 12 43  1  0  0  0
 12 44  1  0  0  0
 12 70  1  0  0  0
 13 18  2  0  0  0
 13 45  1  0  0  0
 14 19  1  0  0  0
 14 46  1  0  0  0
 15 20  2  0  0  0
 15 47  1  0  0  0
 16 21  1  0  0  0
 16 48  1  0  0  0
 17 24  2  0  0  0
 17 25  1  0  0  0
 18 23  1  0  0  0
 18 27  1  0  0  0
 19 22  2  0  0  0
 19 49  1  0  0  0
 20 22  1  0  0  0
 20 50  1  0  0  0
 21 23  2  0  0  0
 21 51  1  0  0  0
 22 26  1  0  0  0
 23 52  1  0  0  0
 24 28  1  0  0  0
 24 53  1  0  0  0
 25 29  2  0  0  0
 25 54  1  0  0  0
 28 30  2  0  0  0
 28 55  1  0  0  0
 29 30  1  0  0  0
 29 56  1  0  0  0
 30 57  1  0  0  0
 31 33  1  0  0  0
 31 58  1  0  0  0
 31 59  1  0  0  0
 32 34  1  0  0  0
 32 60  1  0  0  0
 32 61  1  0  0  0
 33 64  1  0  0  0
 33 65  1  0  0  0
 33 66  1  0  0  0
 34 67  1  0  0  0
 34 68  1  0  0  0
 34 69  1  0  0  0
 70 71  1  0  0  0
M  CHG  1  70   1
M  END
> <LID>
L019572

> <PC_CID>
9825930

> <Names>


> <CAS_Numbers>


$$$$
22729924
                    3D
 Structure written by MMmdl.
 59 63  0  0  1  0            999 V2000
    0.6769    4.3893   -2.1046 O   0  0  0  0  0  0
   -6.6204   -0.8872   -0.6032 N   0  0  0  0  0  0
   -5.8849   -3.0139   -0.4391 N   0  0  0  0  0  0
   -7.2066   -3.0038   -0.6677 N   0  0  0  0  0  0
   -0.0727    0.2376    0.5154 C   0  0  0  0  0  0
    0.4357   -0.2819    1.8949 C   0  0  0  0  0  0
    0.8794   -0.4473   -0.5109 C   0  0  0  0  0  0
    1.9175    0.0597    2.1493 C   0  0  0  0  0  0
    2.3677   -0.1221   -0.2653 C   0  0  0  0  0  0
   -1.5204   -0.2510    0.2723 C   0  0  0  0  0  0
    0.0137    1.7872    0.4370 C   0  0  0  0  0  0
    4.2281   -0.2861    1.3736 C   0  0  0  0  0  0
   -2.5785    0.6376   -0.0409 C   0  0  0  0  0  0
   -1.8301   -1.6294    0.3487 C   0  0  0  0  0  0
    0.3074    2.4507   -0.7819 C   0  0  0  0  0  0
   -0.2635    2.5898    1.5715 C   0  0  0  0  0  0
    5.1306   -1.1779    0.5392 C   0  0  0  0  0  0
    0.3701    3.8560   -0.8712 C   0  0  0  0  0  0
   -3.8862    0.1641   -0.2592 C   0  0  0  0  0  0
   -3.1389   -2.0986    0.1294 C   0  0  0  0  0  0
   -0.2051    3.9929    1.4985 C   0  0  0  0  0  0
   -4.1975   -1.2131   -0.1784 C   0  0  0  0  0  0
    0.1162    4.6278    0.2869 C   0  0  0  0  0  0
    5.7912   -0.6617   -0.5963 C   0  0  0  0  0  0
    5.3144   -2.5300    0.8990 C   0  0  0  0  0  0
   -5.5780   -1.7086   -0.4088 C   0  0  0  0  0  0
    6.6245   -1.4936   -1.3691 C   0  0  0  0  0  0
    6.1482   -3.3609    0.1257 C   0  0  0  0  0  0
    6.8027   -2.8432   -1.0087 C   0  0  0  0  0  0
    0.7337    5.8031   -2.2272 C   0  0  0  0  0  0
   -0.1834    0.0795    2.7146 H   0  0  0  0  0  0
    0.3470   -1.3666    1.9507 H   0  0  0  0  0  0
    0.6007   -0.2079   -1.5363 H   0  0  0  0  0  0
    0.7764   -1.5311   -0.4525 H   0  0  0  0  0  0
    2.0710    1.1386    2.1928 H   0  0  0  0  0  0
    2.2100   -0.3345    3.1234 H   0  0  0  0  0  0
    2.9635   -0.6519   -1.0085 H   0  0  0  0  0  0
    2.5688    0.9398   -0.4091 H   0  0  0  0  0  0
    4.4692    0.7647    1.2044 H   0  0  0  0  0  0
    4.4433   -0.4871    2.4242 H   0  0  0  0  0  0
   -2.4213    1.7018   -0.1240 H   0  0  0  0  0  0
   -1.0657   -2.3565    0.5755 H   0  0  0  0  0  0
    0.4870    1.8954   -1.6881 H   0  0  0  0  0  0
   -0.5374    2.1512    2.5174 H   0  0  0  0  0  0
   -4.6564    0.8838   -0.4949 H   0  0  0  0  0  0
   -3.3194   -3.1609    0.2025 H   0  0  0  0  0  0
   -0.4149    4.5860    2.3766 H   0  0  0  0  0  0
    0.1503    5.7065    0.2696 H   0  0  0  0  0  0
    5.6595    0.3722   -0.8808 H   0  0  0  0  0  0
    4.8167   -2.9350    1.7682 H   0  0  0  0  0  0
    7.1276   -1.0965   -2.2386 H   0  0  0  0  0  0
    6.2865   -4.3958    0.4028 H   0  0  0  0  0  0
    7.4423   -3.4808   -1.6014 H   0  0  0  0  0  0
    0.9811    6.0652   -3.2558 H   0  0  0  0  0  0
   -0.2272    6.2628   -1.9922 H   0  0  0  0  0  0
    1.5054    6.2285   -1.5842 H   0  0  0  0  0  0
    2.7892   -0.5288    1.1014 N   0  3  0  0  0  0
    2.6581   -1.5289    1.1559 H   0  0  0  0  0  0
   -7.6440   -1.7386   -0.7653 N   0  5  0  0  0  0
  1 18  1  0  0  0
  1 30  1  0  0  0
  2 26  2  0  0  0
  2 59  1  0  0  0
  3  4  2  0  0  0
  3 26  1  0  0  0
  4 59  1  0  0  0
  5  6  1  0  0  0
  5  7  1  0  0  0
  5 10  1  0  0  0
  5 11  1  0  0  0
  6  8  1  0  0  0
  6 31  1  0  0  0
  6 32  1  0  0  0
  7  9  1  0  0  0
  7 33  1  0  0  0
  7 34  1  0  0  0
  8 35  1  0  0  0
  8 36  1  0  0  0
  8 57  1  0  0  0
  9 37  1  0  0  0
  9 38  1  0  0  0
  9 57  1  0  0  0
 10 13  2  0  0  0
 10 14  1  0  0  0
 11 15  2  0  0  0
 11 16  1  0  0  0
 12 17  1  0  0  0
 12 39  1  0  0  0
 12 40  1  0  0  0
 12 57  1  0  0  0
 13 19  1  0  0  0
 13 41  1  0  0  0
 14 20  2  0  0  0
 14 42  1  0  0  0
 15 18  1  0  0  0
 15 43  1  0  0  0
 16 21  2  0  0  0
 16 44  1  0  0  0
 17 24  2  0  0  0
 17 25  1  0  0  0
 18 23  2  0  0  0
 19 22  2  0  0  0
 19 45  1  0  0  0
 20 22  1  0  0  0
 20 46  1  0  0  0
 21 23  1  0  0  0
 21 47  1  0  0  0
 22 26  1  0  0  0
 23 48  1  0  0  0
 24 27  1  0  0  0
 24 49  1  0  0  0
 25 28  2  0  0  0
 25 50  1  0  0  0
 27 29  2  0  0  0
 27 51  1  0  0  0
 28 29  1  0  0  0
 28 52  1  0  0  0
 29 53  1  0  0  0
 30 54  1  0  0  0
 30 55  1  0  0  0
 30 56  1  0  0  0
 57 58  1  0  0  0
M  CHG  2  57   1  59  -1
M  END
> <LID>
L019575

> <PC_CID>
22729924

> <Names>


> <CAS_Numbers>


$$$$
22729929
                    3D
 Structure written by MMmdl.
 69 73  0  0  1  0            999 V2000
   -5.6104   -1.6186    1.2484 O   0  0  0  0  0  0
    0.5358    4.5148    1.9038 O   0  0  0  0  0  0
   -5.9799   -0.6732   -0.7138 N   0  0  0  0  0  0
    0.6210    0.1680   -0.4276 C   0  0  0  0  0  0
    1.1389   -0.5647   -1.7032 C   0  0  0  0  0  0
    1.4973   -0.4166    0.7227 C   0  0  0  0  0  0
    2.6618   -0.4381   -1.9302 C   0  0  0  0  0  0
    3.0055   -0.2256    0.4879 C   0  0  0  0  0  0
   -0.8767   -0.1530   -0.2518 C   0  0  0  0  0  0
    0.7605    1.7070   -0.4881 C   0  0  0  0  0  0
    4.8974   -0.8591   -0.9910 C   0  0  0  0  0  0
   -1.3897   -0.8117    0.8935 C   0  0  0  0  0  0
   -1.7885    0.2363   -1.2618 C   0  0  0  0  0  0
    0.5995    2.4707    0.6936 C   0  0  0  0  0  0
    0.9876    2.4027   -1.7008 C   0  0  0  0  0  0
    5.6733   -1.6797    0.0242 C   0  0  0  0  0  0
   -2.7669   -1.0797    1.0166 C   0  0  0  0  0  0
   -3.1656   -0.0296   -1.1423 C   0  0  0  0  0  0
   -3.6639   -0.6922    0.0001 C   0  0  0  0  0  0
    0.7005    3.8765    0.6933 C   0  0  0  0  0  0
    1.0923    3.8053   -1.7178 C   0  0  0  0  0  0
    0.9566    4.5425   -0.5287 C   0  0  0  0  0  0
   -5.1090   -0.9841    0.1506 C   0  0  0  0  0  0
   -7.2791   -1.0970   -0.2621 C   0  0  0  0  0  0
    6.3492   -1.0447    1.0881 C   0  0  0  0  0  0
    5.7235   -3.0849   -0.0949 C   0  0  0  0  0  0
   -7.0074   -1.7510    1.1026 C   0  0  0  0  0  0
   -7.8589   -2.1038   -1.2723 C   0  0  0  0  0  0
   -8.1931    0.1352   -0.1328 C   0  0  0  0  0  0
    7.0648   -1.8105    2.0291 C   0  0  0  0  0  0
    6.4397   -3.8497    0.8464 C   0  0  0  0  0  0
    7.1097   -3.2128    1.9087 C   0  0  0  0  0  0
    0.6233    5.9320    1.9300 C   0  0  0  0  0  0
    0.9037   -1.6267   -1.6140 H   0  0  0  0  0  0
    0.6097   -0.2404   -2.5986 H   0  0  0  0  0  0
    1.2335    0.0033    1.6924 H   0  0  0  0  0  0
    1.3160   -1.4891    0.8125 H   0  0  0  0  0  0
    2.9391   -1.0276   -2.8050 H   0  0  0  0  0  0
    2.9456    0.5907   -2.1506 H   0  0  0  0  0  0
    3.5433   -0.6359    1.3426 H   0  0  0  0  0  0
    3.2599    0.8341    0.4366 H   0  0  0  0  0  0
    5.1267   -1.2552   -1.9815 H   0  0  0  0  0  0
    5.2398    0.1771   -0.9856 H   0  0  0  0  0  0
   -0.7501   -1.1243    1.7035 H   0  0  0  0  0  0
   -1.4365    0.7520   -2.1428 H   0  0  0  0  0  0
    0.3797    1.9827    1.6306 H   0  0  0  0  0  0
    1.0801    1.8855   -2.6422 H   0  0  0  0  0  0
   -3.1257   -1.5846    1.9020 H   0  0  0  0  0  0
   -3.8304    0.2828   -1.9346 H   0  0  0  0  0  0
    1.2722    4.3195   -2.6504 H   0  0  0  0  0  0
    1.0419    5.6172   -0.5824 H   0  0  0  0  0  0
    6.3197    0.0305    1.1888 H   0  0  0  0  0  0
    5.2132   -3.5815   -0.9074 H   0  0  0  0  0  0
   -7.2862   -2.8054    1.1291 H   0  0  0  0  0  0
   -7.5169   -1.2441    1.9232 H   0  0  0  0  0  0
   -7.9902   -1.6488   -2.2548 H   0  0  0  0  0  0
   -7.2052   -2.9684   -1.3951 H   0  0  0  0  0  0
   -8.8327   -2.4707   -0.9464 H   0  0  0  0  0  0
   -8.3304    0.6298   -1.0951 H   0  0  0  0  0  0
   -9.1797   -0.1447    0.2375 H   0  0  0  0  0  0
   -7.7780    0.8701    0.5583 H   0  0  0  0  0  0
    7.5800   -1.3221    2.8433 H   0  0  0  0  0  0
    6.4759   -4.9253    0.7534 H   0  0  0  0  0  0
    7.6591   -3.7997    2.6303 H   0  0  0  0  0  0
    0.4694    6.2830    2.9503 H   0  0  0  0  0  0
    1.6067    6.2770    1.6078 H   0  0  0  0  0  0
   -0.1440    6.3907    1.3048 H   0  0  0  0  0  0
    3.4327   -0.9133   -0.7563 N   0  3  0  0  0  0
    3.2018   -1.8899   -0.6408 H   0  0  0  0  0  0
  1 23  1  0  0  0
  1 27  1  0  0  0
  2 20  1  0  0  0
  2 33  1  0  0  0
  3 23  2  0  0  0
  3 24  1  0  0  0
  4  5  1  0  0  0
  4  6  1  0  0  0
  4  9  1  0  0  0
  4 10  1  0  0  0
  5  7  1  0  0  0
  5 34  1  0  0  0
  5 35  1  0  0  0
  6  8  1  0  0  0
  6 36  1  0  0  0
  6 37  1  0  0  0
  7 38  1  0  0  0
  7 39  1  0  0  0
  7 68  1  0  0  0
  8 40  1  0  0  0
  8 41  1  0  0  0
  8 68  1  0  0  0
  9 12  2  0  0  0
  9 13  1  0  0  0
 10 14  2  0  0  0
 10 15  1  0  0  0
 11 16  1  0  0  0
 11 42  1  0  0  0
 11 43  1  0  0  0
 11 68  1  0  0  0
 12 17  1  0  0  0
 12 44  1  0  0  0
 13 18  2  0  0  0
 13 45  1  0  0  0
 14 20  1  0  0  0
 14 46  1  0  0  0
 15 21  2  0  0  0
 15 47  1  0  0  0
 16 25  2  0  0  0
 16 26  1  0  0  0
 17 19  2  0  0  0
 17 48  1  0  0  0
 18 19  1  0  0  0
 18 49  1  0  0  0
 19 23  1  0  0  0
 20 22  2  0  0  0
 21 22  1  0  0  0
 21 50  1  0  0  0
 22 51  1  0  0  0
 24 27  1  0  0  0
 24 28  1  0  0  0
 24 29  1  0  0  0
 25 30  1  0  0  0
 25 52  1  0  0  0
 26 31  2  0  0  0
 26 53  1  0  0  0
 27 54  1  0  0  0
 27 55  1  0  0  0
 28 56  1  0  0  0
 28 57  1  0  0  0
 28 58  1  0  0  0
 29 59  1  0  0  0
 29 60  1  0  0  0
 29 61  1  0  0  0
 30 32  2  0  0  0
 30 62  1  0  0  0
 31 32  1  0  0  0
 31 63  1  0  0  0
 32 64  1  0  0  0
 33 65  1  0  0  0
 33 66  1  0  0  0
 33 67  1  0  0  0
 68 69  1  0  0  0
M  CHG  1  68   1
M  END
> <LID>
L019576

> <PC_CID>
22729929

> <Names>


> <CAS_Numbers>


$$$$
20093073
                    3D
 Structure written by MMmdl.
 63 65  0  0  1  0            999 V2000
    2.8188   -0.7479   -2.1755 O   0  0  0  0  0  0
   -1.6307   -1.9135   -1.8568 O   0  0  0  0  0  0
    2.3798    4.8676    2.5230 O   0  0  0  0  0  0
    2.5260   -0.2300    0.0194 N   0  0  0  0  0  0
   -0.7498   -2.1027    0.2253 N   0  0  0  0  0  0
   -4.5137   -3.4913    1.5968 N   0  0  0  0  0  0
    1.0732   -0.3633    0.1743 C   0  0  0  0  0  0
    0.6481   -1.8325   -0.1039 C   0  0  0  0  0  0
    4.7798   -0.1418   -0.9303 C   0  0  1  0  0  0
    0.7690    0.0187    1.6372 C   0  0  0  0  0  0
    0.3451    0.6351   -0.7540 C   0  0  0  0  0  0
    5.1383    1.3578   -1.0777 C   0  0  0  0  0  0
    3.2752   -0.4074   -1.0843 C   0  0  0  0  0  0
    4.4228    2.3225   -0.1232 C   0  0  0  0  0  0
    4.7979    2.3917    1.2480 C   0  0  0  0  0  0
    3.3597    3.1466   -0.5904 C   0  0  0  0  0  0
   -1.7646   -2.1357   -0.6535 C   0  0  0  0  0  0
    4.1022    3.2481    2.1262 C   0  0  0  0  0  0
    2.6806    3.9983    0.3052 C   0  0  0  0  0  0
    5.9341    1.5613    1.8255 C   0  0  0  0  0  0
    2.9140    3.1457   -2.0447 C   0  0  0  0  0  0
    3.0455    4.0466    1.6604 C   0  0  0  0  0  0
   -3.1234   -2.3873   -0.0679 C   0  0  0  0  0  0
   -4.2731   -1.8228   -0.6585 C   0  0  0  0  0  0
   -5.5374   -2.0967   -0.0980 C   0  0  0  0  0  0
   -3.3072   -3.2254    1.0541 C   0  0  0  0  0  0
   -5.6178   -2.9426    1.0421 C   0  0  0  0  0  0
   -6.7006   -1.5368   -0.6656 C   0  0  0  0  0  0
   -6.8912   -3.2046    1.5906 C   0  0  0  0  0  0
   -7.9599   -1.8121   -0.1019 C   0  0  0  0  0  0
   -8.0548   -2.6462    1.0269 C   0  0  0  0  0  0
    0.8470   -2.1094   -1.1402 H   0  0  0  0  0  0
    1.2530   -2.5081    0.5021 H   0  0  0  0  0  0
    3.0164    0.0682    0.8505 H   0  0  0  0  0  0
    5.0782   -0.4930    0.0564 H   0  0  0  0  0  0
   -0.3013    0.0101    1.8457 H   0  0  0  0  0  0
    1.2453   -0.6697    2.3365 H   0  0  0  0  0  0
    1.1305    1.0222    1.8678 H   0  0  0  0  0  0
   -0.7271    0.6523   -0.5583 H   0  0  0  0  0  0
    0.7114    1.6514   -0.6083 H   0  0  0  0  0  0
    0.4731    0.3840   -1.8069 H   0  0  0  0  0  0
    4.9779    1.6580   -2.1119 H   0  0  0  0  0  0
    6.2121    1.4852   -0.9446 H   0  0  0  0  0  0
   -0.9616   -2.2626    1.1991 H   0  0  0  0  0  0
    5.3412   -1.9228   -1.7619 H   0  0  0  0  0  0
    5.2746   -0.6796   -2.8358 H   0  0  0  0  0  0
    4.3789    3.2961    3.1696 H   0  0  0  0  0  0
    1.8706    4.6193   -0.0490 H   0  0  0  0  0  0
    6.8092    1.5592    1.1774 H   0  0  0  0  0  0
    6.2562    1.9620    2.7873 H   0  0  0  0  0  0
    5.6129    0.5343    1.9936 H   0  0  0  0  0  0
    3.7051    3.5346   -2.6861 H   0  0  0  0  0  0
    2.0334    3.7718   -2.1916 H   0  0  0  0  0  0
    2.6555    2.1410   -2.3771 H   0  0  0  0  0  0
   -4.1877   -1.1852   -1.5272 H   0  0  0  0  0  0
   -2.4677   -3.7048    1.5363 H   0  0  0  0  0  0
    1.6941    5.3679    2.1079 H   0  0  0  0  0  0
   -6.6323   -0.8955   -1.5325 H   0  0  0  0  0  0
   -6.9766   -3.8444    2.4566 H   0  0  0  0  0  0
   -8.8523   -1.3840   -0.5349 H   0  0  0  0  0  0
   -9.0208   -2.8588    1.4610 H   0  0  0  0  0  0
    5.5492   -0.9441   -1.9001 N   0  3  0  0  0  0
    6.5384   -0.7844   -1.7749 H   0  0  0  0  0  0
  1 13  2  0  0  0
  2 17  2  0  0  0
  3 22  1  0  0  0
  3 57  1  0  0  0
  4  7  1  0  0  0
  4 13  1  0  0  0
  4 34  1  0  0  0
  5  8  1  0  0  0
  5 17  1  0  0  0
  5 44  1  0  0  0
  6 26  2  0  0  0
  6 27  1  0  0  0
  7  8  1  0  0  0
  7 10  1  0  0  0
  7 11  1  0  0  0
  8 32  1  0  0  0
  8 33  1  0  0  0
  9 12  1  0  0  0
  9 13  1  0  0  0
  9 35  1  0  0  0
  9 62  1  0  0  0
 10 36  1  0  0  0
 10 37  1  0  0  0
 10 38  1  0  0  0
 11 39  1  0  0  0
 11 40  1  0  0  0
 11 41  1  0  0  0
 12 14  1  0  0  0
 12 42  1  0  0  0
 12 43  1  0  0  0
 14 15  2  0  0  0
 14 16  1  0  0  0
 15 18  1  0  0  0
 15 20  1  0  0  0
 16 19  2  0  0  0
 16 21  1  0  0  0
 17 23  1  0  0  0
 18 22  2  0  0  0
 18 47  1  0  0  0
 19 22  1  0  0  0
 19 48  1  0  0  0
 20 49  1  0  0  0
 20 50  1  0  0  0
 20 51  1  0  0  0
 21 52  1  0  0  0
 21 53  1  0  0  0
 21 54  1  0  0  0
 23 24  2  0  0  0
 23 26  1  0  0  0
 24 25  1  0  0  0
 24 55  1  0  0  0
 25 27  1  0  0  0
 25 28  2  0  0  0
 26 56  1  0  0  0
 27 29  2  0  0  0
 28 30  1  0  0  0
 28 58  1  0  0  0
 29 31  1  0  0  0
 29 59  1  0  0  0
 30 31  2  0  0  0
 30 60  1  0  0  0
 31 61  1  0  0  0
 45 62  1  0  0  0
 46 62  1  0  0  0
 62 63  1  0  0  0
M  CHG  1  62   1
M  END
> <LID>
L012468

> <PC_CID>
20093073

> <Names>


> <CAS_Numbers>


$$$$
20093076
                    3D
 Structure written by MMmdl.
 63 65  0  0  1  0            999 V2000
    2.9429   -1.1994   -1.7674 O   0  0  0  0  0  0
    2.0468    5.3661    1.3785 O   0  0  0  0  0  0
   -1.4786   -2.4498   -1.3908 O   0  0  0  0  0  0
    2.5063   -0.1748    0.2153 N   0  0  0  0  0  0
   -0.7143   -2.0877    0.7144 N   0  0  0  0  0  0
   -4.0921   -2.1140   -0.3645 N   0  0  0  0  0  0
    1.0521   -0.3324    0.3276 C   0  0  0  0  0  0
    0.6915   -1.8429    0.3995 C   0  0  0  0  0  0
    4.8074   -0.2175   -0.6172 C   0  0  1  0  0  0
    0.6508    0.3808    1.6349 C   0  0  0  0  0  0
    0.3474    0.3751   -0.8521 C   0  0  0  0  0  0
    5.1242    1.2159   -1.1112 C   0  0  0  0  0  0
    3.3238   -0.5817   -0.7731 C   0  0  0  0  0  0
    4.3231    2.3501   -0.4590 C   0  0  0  0  0  0
    4.6153    2.7686    0.8697 C   0  0  0  0  0  0
    3.2624    2.9855   -1.1652 C   0  0  0  0  0  0
   -1.6764   -2.3760   -0.1772 C   0  0  0  0  0  0
    3.8419    3.7801    1.4757 C   0  0  0  0  0  0
    2.5046    3.9975   -0.5404 C   0  0  0  0  0  0
    5.7427    2.1574    1.6877 C   0  0  0  0  0  0
    2.9023    2.6097   -2.5945 C   0  0  0  0  0  0
    2.7883    4.3913    0.7774 C   0  0  0  0  0  0
   -3.0561   -2.5340    0.3976 C   0  0  0  0  0  0
   -3.2472   -3.1270    1.6669 C   0  0  0  0  0  0
   -5.3567   -2.2447    0.0948 C   0  0  0  0  0  0
   -5.6331   -2.8216    1.3639 C   0  0  0  0  0  0
   -4.5581   -3.2691    2.1568 C   0  0  0  0  0  0
   -6.4439   -1.8039   -0.6892 C   0  0  0  0  0  0
   -6.9590   -2.9496    1.8268 C   0  0  0  0  0  0
   -7.7695   -1.9297   -0.2304 C   0  0  0  0  0  0
   -8.0276   -2.5027    1.0282 C   0  0  0  0  0  0
    0.9600   -2.3553   -0.5254 H   0  0  0  0  0  0
    1.2805   -2.3217    1.1827 H   0  0  0  0  0  0
    2.9375    0.3399    0.9698 H   0  0  0  0  0  0
    5.0596   -0.3034    0.4387 H   0  0  0  0  0  0
   -0.4290    0.3744    1.7869 H   0  0  0  0  0  0
    1.1076   -0.0936    2.5044 H   0  0  0  0  0  0
    0.9655    1.4256    1.6286 H   0  0  0  0  0  0
   -0.7344    0.3913   -0.7189 H   0  0  0  0  0  0
    0.6720    1.4117   -0.9436 H   0  0  0  0  0  0
    0.5442   -0.1194   -1.8032 H   0  0  0  0  0  0
    5.0143    1.2473   -2.1940 H   0  0  0  0  0  0
    6.1836    1.4214   -0.9620 H   0  0  0  0  0  0
   -0.9839   -2.0180    1.6847 H   0  0  0  0  0  0
    5.4744   -2.1195   -0.9576 H   0  0  0  0  0  0
    5.4291   -1.1798   -2.3060 H   0  0  0  0  0  0
    4.0556    4.0936    2.4874 H   0  0  0  0  0  0
    1.6965    4.4753   -1.0750 H   0  0  0  0  0  0
    5.4462    1.1887    2.0877 H   0  0  0  0  0  0
    6.6536    2.0376    1.1030 H   0  0  0  0  0  0
    5.9951    2.7949    2.5358 H   0  0  0  0  0  0
    2.0115    3.1396   -2.9330 H   0  0  0  0  0  0
    3.7160    2.8669   -3.2728 H   0  0  0  0  0  0
    2.6971    1.5434   -2.6819 H   0  0  0  0  0  0
   -2.4139   -3.4781    2.2580 H   0  0  0  0  0  0
   -4.7316   -3.7183    3.1239 H   0  0  0  0  0  0
    1.3702    5.7178    0.8205 H   0  0  0  0  0  0
   -6.2574   -1.3628   -1.6573 H   0  0  0  0  0  0
   -7.1615   -3.3898    2.7924 H   0  0  0  0  0  0
   -8.5886   -1.5863   -0.8453 H   0  0  0  0  0  0
   -9.0443   -2.5996    1.3804 H   0  0  0  0  0  0
    5.6576   -1.1954   -1.3219 N   0  3  0  0  0  0
    6.6321   -0.9646   -1.1924 H   0  0  0  0  0  0
  1 13  2  0  0  0
  2 22  1  0  0  0
  2 57  1  0  0  0
  3 17  2  0  0  0
  4  7  1  0  0  0
  4 13  1  0  0  0
  4 34  1  0  0  0
  5  8  1  0  0  0
  5 17  1  0  0  0
  5 44  1  0  0  0
  6 23  2  0  0  0
  6 25  1  0  0  0
  7  8  1  0  0  0
  7 10  1  0  0  0
  7 11  1  0  0  0
  8 32  1  0  0  0
  8 33  1  0  0  0
  9 12  1  0  0  0
  9 13  1  0  0  0
  9 35  1  0  0  0
  9 62  1  0  0  0
 10 36  1  0  0  0
 10 37  1  0  0  0
 10 38  1  0  0  0
 11 39  1  0  0  0
 11 40  1  0  0  0
 11 41  1  0  0  0
 12 14  1  0  0  0
 12 42  1  0  0  0
 12 43  1  0  0  0
 14 15  2  0  0  0
 14 16  1  0  0  0
 15 18  1  0  0  0
 15 20  1  0  0  0
 16 19  2  0  0  0
 16 21  1  0  0  0
 17 23  1  0  0  0
 18 22  2  0  0  0
 18 47  1  0  0  0
 19 22  1  0  0  0
 19 48  1  0  0  0
 20 49  1  0  0  0
 20 50  1  0  0  0
 20 51  1  0  0  0
 21 52  1  0  0  0
 21 53  1  0  0  0
 21 54  1  0  0  0
 23 24  1  0  0  0
 24 27  2  0  0  0
 24 55  1  0  0  0
 25 26  1  0  0  0
 25 28  2  0  0  0
 26 27  1  0  0  0
 26 29  2  0  0  0
 27 56  1  0  0  0
 28 30  1  0  0  0
 28 58  1  0  0  0
 29 31  1  0  0  0
 29 59  1  0  0  0
 30 31  2  0  0  0
 30 60  1  0  0  0
 31 61  1  0  0  0
 45 62  1  0  0  0
 46 62  1  0  0  0
 62 63  1  0  0  0
M  CHG  1  62   1
M  END
> <LID>
L012467

> <PC_CID>
20093076

> <Names>


> <CAS_Numbers>


$$$$
10300301
                    3D
 Structure written by MMmdl.
 72 77  0  0  1  0            999 V2000
   -2.0359    1.7453    1.1591 O   0  0  0  0  0  0
    5.2251   -1.4037    0.7066 O   0  0  0  0  0  0
   -3.2576   -1.5520    0.6525 N   0  0  0  0  0  0
   -4.0044    0.6019    1.1328 N   0  0  0  0  0  0
    4.4609    0.1138   -0.8061 N   0  0  0  0  0  0
   -2.0796   -0.6588    0.6846 C   0  0  0  0  0  0
   -1.0693   -1.0608    1.7993 C   0  0  0  0  0  0
   -1.3751   -0.5724   -0.7015 C   0  0  0  0  0  0
    0.2740   -0.3078    1.7238 C   0  0  0  0  0  0
   -0.0201    0.1617   -0.6667 C   0  0  0  0  0  0
   -2.6846    0.7081    1.0222 C   0  0  0  0  0  0
   -4.4583   -0.7590    0.9446 C   0  0  0  0  0  0
    2.2510    0.1582    0.3287 C   0  0  0  0  0  0
   -3.3262   -2.8982    0.4047 C   0  0  0  0  0  0
   -4.9457    1.6831    1.4187 C   0  0  0  0  0  0
    3.0956   -0.4273   -0.8205 C   0  0  0  0  0  0
   -4.5799   -3.5668    0.4364 C   0  0  0  0  0  0
   -2.1830   -3.6870    0.1094 C   0  0  0  0  0  0
   -5.1590    2.6588    0.2673 C   0  0  0  0  0  0
    4.6737    1.3314   -1.6049 C   0  0  0  0  0  0
   -4.6862   -4.9484    0.1863 C   0  0  0  0  0  0
   -2.2861   -5.0689   -0.1412 C   0  0  0  0  0  0
    5.4285   -0.4381   -0.0316 C   0  0  0  0  0  0
    6.0943    1.4192   -2.1849 C   0  0  0  0  0  0
   -5.4592    4.0078    0.5531 C   0  0  0  0  0  0
   -5.0823    2.2384   -1.0806 C   0  0  0  0  0  0
   -3.5383   -5.7034   -0.1035 C   0  0  0  0  0  0
    6.7940    0.1995   -0.0837 C   0  0  0  0  0  0
    7.1311    1.0863   -1.1332 C   0  0  0  0  0  0
   -5.6674    4.9287   -0.4920 C   0  0  0  0  0  0
   -5.2902    3.1596   -2.1254 C   0  0  0  0  0  0
    7.7639   -0.1036    0.8992 C   0  0  0  0  0  0
    8.4170    1.6614   -1.1956 C   0  0  0  0  0  0
   -5.5815    4.5053   -1.8318 C   0  0  0  0  0  0
    9.0471    0.4738    0.8371 C   0  0  0  0  0  0
    9.3742    1.3555   -0.2100 C   0  0  0  0  0  0
   -0.8514   -2.1246    1.7834 H   0  0  0  0  0  0
   -1.5143   -0.8926    2.7816 H   0  0  0  0  0  0
   -2.0289   -0.0731   -1.4189 H   0  0  0  0  0  0
   -1.2067   -1.5549   -1.1326 H   0  0  0  0  0  0
    0.9518   -0.7400    2.4611 H   0  0  0  0  0  0
    0.1578    0.7409    1.9980 H   0  0  0  0  0  0
   -0.1549    1.2290   -0.4905 H   0  0  0  0  0  0
    0.4380    0.0773   -1.6512 H   0  0  0  0  0  0
   -5.1676   -0.8005    0.1165 H   0  0  0  0  0  0
   -4.9478   -1.1125    1.8536 H   0  0  0  0  0  0
    2.2005    1.2461    0.2602 H   0  0  0  0  0  0
    2.7580   -0.0645    1.2689 H   0  0  0  0  0  0
   -5.9139    1.2593    1.6881 H   0  0  0  0  0  0
   -4.5963    2.2275    2.2976 H   0  0  0  0  0  0
    3.1205   -1.5162   -0.7468 H   0  0  0  0  0  0
    2.6340   -0.2220   -1.7856 H   0  0  0  0  0  0
   -5.4964   -3.0404    0.6537 H   0  0  0  0  0  0
   -1.1932   -3.2684    0.0641 H   0  0  0  0  0  0
    4.5024    2.1843   -0.9466 H   0  0  0  0  0  0
    3.9487    1.4197   -2.4146 H   0  0  0  0  0  0
   -5.6531   -5.4288    0.2174 H   0  0  0  0  0  0
   -1.3990   -5.6437   -0.3632 H   0  0  0  0  0  0
    6.2738    2.4149   -2.5922 H   0  0  0  0  0  0
    6.2058    0.7129   -3.0085 H   0  0  0  0  0  0
   -5.5290    4.3429    1.5778 H   0  0  0  0  0  0
   -4.8650    1.2094   -1.3255 H   0  0  0  0  0  0
   -3.6179   -6.7634   -0.2955 H   0  0  0  0  0  0
   -5.8939    5.9602   -0.2654 H   0  0  0  0  0  0
   -5.2280    2.8330   -3.1530 H   0  0  0  0  0  0
    7.5330   -0.7818    1.7081 H   0  0  0  0  0  0
    8.6725    2.3387   -1.9974 H   0  0  0  0  0  0
   -5.7416    5.2113   -2.6334 H   0  0  0  0  0  0
    9.7819    0.2376    1.5927 H   0  0  0  0  0  0
   10.3589    1.7966   -0.2575 H   0  0  0  0  0  0
    0.8787   -0.4083    0.3710 N   0  3  0  0  0  0
    0.9726   -1.3953    0.1772 H   0  0  0  0  0  0
  1 11  2  0  0  0
  2 23  2  0  0  0
  3  6  1  0  0  0
  3 12  1  0  0  0
  3 14  1  0  0  0
  4 11  1  0  0  0
  4 12  1  0  0  0
  4 15  1  0  0  0
  5 16  1  0  0  0
  5 20  1  0  0  0
  5 23  1  0  0  0
  6  7  1  0  0  0
  6  8  1  0  0  0
  6 11  1  0  0  0
  7  9  1  0  0  0
  7 37  1  0  0  0
  7 38  1  0  0  0
  8 10  1  0  0  0
  8 39  1  0  0  0
  8 40  1  0  0  0
  9 41  1  0  0  0
  9 42  1  0  0  0
  9 71  1  0  0  0
 10 43  1  0  0  0
 10 44  1  0  0  0
 10 71  1  0  0  0
 12 45  1  0  0  0
 12 46  1  0  0  0
 13 16  1  0  0  0
 13 47  1  0  0  0
 13 48  1  0  0  0
 13 71  1  0  0  0
 14 17  2  0  0  0
 14 18  1  0  0  0
 15 19  1  0  0  0
 15 49  1  0  0  0
 15 50  1  0  0  0
 16 51  1  0  0  0
 16 52  1  0  0  0
 17 21  1  0  0  0
 17 53  1  0  0  0
 18 22  2  0  0  0
 18 54  1  0  0  0
 19 25  2  0  0  0
 19 26  1  0  0  0
 20 24  1  0  0  0
 20 55  1  0  0  0
 20 56  1  0  0  0
 21 27  2  0  0  0
 21 57  1  0  0  0
 22 27  1  0  0  0
 22 58  1  0  0  0
 23 28  1  0  0  0
 24 29  1  0  0  0
 24 59  1  0  0  0
 24 60  1  0  0  0
 25 30  1  0  0  0
 25 61  1  0  0  0
 26 31  2  0  0  0
 26 62  1  0  0  0
 27 63  1  0  0  0
 28 29  1  0  0  0
 28 32  2  0  0  0
 29 33  2  0  0  0
 30 34  2  0  0  0
 30 64  1  0  0  0
 31 34  1  0  0  0
 31 65  1  0  0  0
 32 35  1  0  0  0
 32 66  1  0  0  0
 33 36  1  0  0  0
 33 67  1  0  0  0
 34 68  1  0  0  0
 35 36  2  0  0  0
 35 69  1  0  0  0
 36 70  1  0  0  0
 71 72  1  0  0  0
M  CHG  1  71   1
M  END
> <LID>
L020673

> <PC_CID>
10300301

> <Names>


> <CAS_Numbers>


$$$$
11168198
                    3D
 Structure written by MMmdl.
 75 78  0  0  1  0            999 V2000
    5.9164   -0.0999   -0.1279 O   0  0  0  0  0  0
    0.5521    4.2892   -2.1126 O   0  0  0  0  0  0
   -0.5528    2.6466   -3.2417 O   0  0  0  0  0  0
   -0.8606    2.9486   -0.9622 N   0  0  0  0  0  0
    5.1058   -2.2185   -0.3375 N   0  0  0  0  0  0
   -5.5838   -5.5838   -0.3785 N   0  0  0  0  0  0
   -3.7334    0.5820    0.4934 C   0  0  0  0  0  0
   -2.3757   -1.4362    0.0636 C   0  0  0  0  0  0
   -2.7665    1.0244    1.6046 C   0  0  0  0  0  0
   -1.3873   -1.0308    1.1694 C   0  0  0  0  0  0
   -1.3659    0.4818    1.3487 C   0  0  0  0  0  0
   -4.7451   -1.3340   -0.6767 C   0  0  0  0  0  0
   -0.2498    1.2504    1.2797 C   0  0  0  0  0  0
   -0.3238    2.7165    1.4164 C   0  0  0  0  0  0
    1.0665    0.6876    0.9356 C   0  0  0  0  0  0
   -5.0390   -2.8199   -0.5771 C   0  0  0  0  0  0
   -0.5859    3.5475    0.2981 C   0  0  0  0  0  0
    1.3152    0.1971   -0.3648 C   0  0  0  0  0  0
    2.1101    0.6807    1.8846 C   0  0  0  0  0  0
   -0.0764    3.3045    2.6755 C   0  0  0  0  0  0
   -4.5015   -3.7291   -1.5115 C   0  0  0  0  0  0
   -5.8558   -3.3204    0.4573 C   0  0  0  0  0  0
    2.5804   -0.3187   -0.7031 C   0  0  0  0  0  0
    3.3764    0.1648    1.5479 C   0  0  0  0  0  0
    3.6129   -0.3547    0.2580 C   0  0  0  0  0  0
   -0.6464    4.9502    0.4675 C   0  0  0  0  0  0
   -0.1181    4.7023    2.8330 C   0  0  0  0  0  0
   -0.4077    5.5251    1.7296 C   0  0  0  0  0  0
   -4.8043   -5.0978   -1.3676 C   0  0  0  0  0  0
   -6.0971   -4.7078    0.5110 C   0  0  0  0  0  0
    4.9712   -0.8887   -0.0916 C   0  0  0  0  0  0
    6.4167   -2.7784   -0.6993 C   0  0  0  0  0  0
    4.0475   -3.2256   -0.1499 C   0  0  0  0  0  0
   -0.3104    3.2592   -2.2024 C   0  0  0  0  0  0
    7.2970   -3.0221    0.5366 C   0  0  0  0  0  0
    3.4304   -3.6840   -1.4811 C   0  0  0  0  0  0
    1.2395    4.7337   -3.2694 C   0  0  0  0  0  0
   -3.1097    0.6397    2.5658 H   0  0  0  0  0  0
   -2.7867    2.1100    1.6909 H   0  0  0  0  0  0
   -0.4032   -1.4442    0.9551 H   0  0  0  0  0  0
   -1.6956   -1.4777    2.1153 H   0  0  0  0  0  0
   -4.7393    0.9268    0.7365 H   0  0  0  0  0  0
   -3.4561    1.0561   -0.4498 H   0  0  0  0  0  0
   -2.4065   -2.5242    0.0049 H   0  0  0  0  0  0
   -2.0180   -1.0777   -0.9031 H   0  0  0  0  0  0
   -5.6834   -0.8012   -0.5148 H   0  0  0  0  0  0
   -4.4126   -1.0780   -1.6840 H   0  0  0  0  0  0
    0.5346    0.2224   -1.1112 H   0  0  0  0  0  0
    1.9426    1.0702    2.8780 H   0  0  0  0  0  0
    0.1425    2.6803    3.5295 H   0  0  0  0  0  0
   -3.8708   -3.3923   -2.3212 H   0  0  0  0  0  0
   -6.2921   -2.6621    1.1944 H   0  0  0  0  0  0
    2.7569   -0.6704   -1.7083 H   0  0  0  0  0  0
    4.1649    0.1650    2.2868 H   0  0  0  0  0  0
   -0.8813    5.5940   -0.3675 H   0  0  0  0  0  0
    0.0677    5.1428    3.8016 H   0  0  0  0  0  0
   -1.3993    2.0961   -0.9517 H   0  0  0  0  0  0
   -0.4494    6.5975    1.8512 H   0  0  0  0  0  0
   -4.4085   -5.8212   -2.0651 H   0  0  0  0  0  0
   -6.7183   -5.1245    1.2899 H   0  0  0  0  0  0
    6.2901   -3.7198   -1.2345 H   0  0  0  0  0  0
    6.9320   -2.1180   -1.3990 H   0  0  0  0  0  0
    4.4747   -4.0922    0.3564 H   0  0  0  0  0  0
    3.2619   -2.8770    0.5207 H   0  0  0  0  0  0
    8.2546   -3.4557    0.2481 H   0  0  0  0  0  0
    7.5040   -2.0942    1.0703 H   0  0  0  0  0  0
    6.8192   -3.7102    1.2343 H   0  0  0  0  0  0
    2.6573   -4.4323   -1.3060 H   0  0  0  0  0  0
    2.9699   -2.8607   -2.0236 H   0  0  0  0  0  0
    4.1758   -4.1341   -2.1366 H   0  0  0  0  0  0
    1.8896    5.5707   -3.0150 H   0  0  0  0  0  0
    1.8573    3.9366   -3.6848 H   0  0  0  0  0  0
    0.5377    5.0677   -4.0346 H   0  0  0  0  0  0
   -3.7377   -0.8941    0.3209 N   0  3  2  0  0  0
   -4.0361   -1.2790    1.2060 H   0  0  0  0  0  0
  1 31  2  0  0  0
  2 34  1  0  0  0
  2 37  1  0  0  0
  3 34  2  0  0  0
  4 17  1  0  0  0
  4 34  1  0  0  0
  4 57  1  0  0  0
  5 31  1  0  0  0
  5 32  1  0  0  0
  5 33  1  0  0  0
  6 29  2  0  0  0
  6 30  1  0  0  0
  7  9  1  0  0  0
  7 42  1  0  0  0
  7 43  1  0  0  0
  7 74  1  0  0  0
  8 10  1  0  0  0
  8 44  1  0  0  0
  8 45  1  0  0  0
  8 74  1  0  0  0
  9 11  1  0  0  0
  9 38  1  0  0  0
  9 39  1  0  0  0
 10 11  1  0  0  0
 10 40  1  0  0  0
 10 41  1  0  0  0
 11 13  2  0  0  0
 12 16  1  0  0  0
 12 46  1  0  0  0
 12 47  1  0  0  0
 12 74  1  0  0  0
 13 14  1  0  0  0
 13 15  1  0  0  0
 14 17  1  0  0  0
 14 20  2  0  0  0
 15 18  2  0  0  0
 15 19  1  0  0  0
 16 21  2  0  0  0
 16 22  1  0  0  0
 17 26  2  0  0  0
 18 23  1  0  0  0
 18 48  1  0  0  0
 19 24  2  0  0  0
 19 49  1  0  0  0
 20 27  1  0  0  0
 20 50  1  0  0  0
 21 29  1  0  0  0
 21 51  1  0  0  0
 22 30  2  0  0  0
 22 52  1  0  0  0
 23 25  2  0  0  0
 23 53  1  0  0  0
 24 25  1  0  0  0
 24 54  1  0  0  0
 25 31  1  0  0  0
 26 28  1  0  0  0
 26 55  1  0  0  0
 27 28  2  0  0  0
 27 56  1  0  0  0
 28 58  1  0  0  0
 29 59  1  0  0  0
 30 60  1  0  0  0
 32 35  1  0  0  0
 32 61  1  0  0  0
 32 62  1  0  0  0
 33 36  1  0  0  0
 33 63  1  0  0  0
 33 64  1  0  0  0
 35 65  1  0  0  0
 35 66  1  0  0  0
 35 67  1  0  0  0
 36 68  1  0  0  0
 36 69  1  0  0  0
 36 70  1  0  0  0
 37 71  1  0  0  0
 37 72  1  0  0  0
 37 73  1  0  0  0
 74 75  1  0  0  0
M  CHG  1  74   1
M  END
> <LID>
L023448

> <PC_CID>
11168198

> <Names>


> <CAS_Numbers>


$$$$
22504668
                    3D
 Structure written by MMmdl.
 69 72  0  0  1  0            999 V2000
   -1.4175    2.1701   -4.0412 O   0  0  0  0  0  0
    7.7202    5.6567   -3.3131 O   0  0  0  0  0  0
    2.2227    3.3374   -1.1469 N   0  0  0  0  0  0
   -0.6490    0.4550    4.4076 N   0  0  0  0  0  0
    7.1248    4.5398   -5.2073 N   0  0  0  0  0  0
    2.3839    2.5123    0.0617 C   0  0  0  0  0  0
    1.8322    1.0818   -0.0993 C   0  0  0  0  0  0
    1.7715    3.1558    1.3202 C   0  0  0  0  0  0
    2.0855    0.2521    1.1701 C   0  0  0  0  0  0
    2.0282    2.2844    2.5605 C   0  0  0  0  0  0
    1.6052    0.0618    3.5811 C   0  0  0  0  0  0
    3.3436    3.7053   -1.8105 C   0  0  0  0  0  0
    0.9774    3.5827   -1.6150 C   0  0  0  0  0  0
    0.6723    0.5356    4.6805 C   0  0  0  0  0  0
    4.2980    2.7456   -2.2181 C   0  0  0  0  0  0
    3.5755    5.0679   -2.1006 C   0  0  0  0  0  0
    0.4142    2.7419   -2.5999 C   0  0  0  0  0  0
    0.2339    4.6844   -1.1377 C   0  0  0  0  0  0
    1.1804    1.0481    5.8928 C   0  0  0  0  0  0
    5.4591    3.1418   -2.9089 C   0  0  0  0  0  0
    4.7369    5.4647   -2.7907 C   0  0  0  0  0  0
    5.6762    4.5026   -3.2161 C   0  0  0  0  0  0
   -0.8811    2.9921   -3.0934 C   0  0  0  0  0  0
   -1.0608    4.9355   -1.6315 C   0  0  0  0  0  0
   -1.6197    4.0891   -2.6081 C   0  0  0  0  0  0
    0.2662    1.4884    6.8691 C   0  0  0  0  0  0
    6.9244    4.9432   -3.9251 C   0  0  0  0  0  0
   -1.5175    0.8787    5.3513 C   0  0  0  0  0  0
   -1.1120    1.4026    6.5945 C   0  0  0  0  0  0
    8.3677    4.8837   -5.9135 C   0  0  0  0  0  0
    6.1328    3.8350   -6.0360 C   0  0  0  0  0  0
    9.4644    3.8419   -5.6529 C   0  0  0  0  0  0
    5.0872    4.8003   -6.6134 C   0  0  0  0  0  0
    3.4533    2.4217    0.2606 H   0  0  0  0  0  0
    2.2953    0.5911   -0.9557 H   0  0  0  0  0  0
    0.7602    1.1071   -0.2988 H   0  0  0  0  0  0
    0.6957    3.2870    1.1996 H   0  0  0  0  0  0
    2.1933    4.1495    1.4752 H   0  0  0  0  0  0
    3.1572    0.1101    1.3194 H   0  0  0  0  0  0
    1.6494   -0.7394    1.0418 H   0  0  0  0  0  0
    1.5558    2.7536    3.4238 H   0  0  0  0  0  0
    3.0976    2.2385    2.7727 H   0  0  0  0  0  0
    1.3340   -0.9676    3.3414 H   0  0  0  0  0  0
    2.6375    0.0394    3.9338 H   0  0  0  0  0  0
    4.1456    1.6977   -2.0070 H   0  0  0  0  0  0
    2.8648    5.8196   -1.7896 H   0  0  0  0  0  0
    0.9771    1.9005   -2.9777 H   0  0  0  0  0  0
    0.6559    5.3419   -0.3916 H   0  0  0  0  0  0
    2.2437    1.1045    6.0749 H   0  0  0  0  0  0
    6.1822    2.3951   -3.2043 H   0  0  0  0  0  0
    4.9004    6.5125   -2.9982 H   0  0  0  0  0  0
   -1.6249    5.7790   -1.2616 H   0  0  0  0  0  0
   -2.6133    4.2871   -2.9829 H   0  0  0  0  0  0
    0.6156    1.8857    7.8108 H   0  0  0  0  0  0
   -2.5666    0.7998    5.1072 H   0  0  0  0  0  0
   -1.8419    1.7308    7.3197 H   0  0  0  0  0  0
    8.1851    4.9580   -6.9865 H   0  0  0  0  0  0
    8.7217    5.8741   -5.6220 H   0  0  0  0  0  0
    6.6354    3.3247   -6.8589 H   0  0  0  0  0  0
    5.6389    3.0350   -5.4886 H   0  0  0  0  0  0
   -2.2855    2.4280   -4.3112 H   0  0  0  0  0  0
    9.7136    3.7848   -4.5928 H   0  0  0  0  0  0
   10.3761    4.0963   -6.1936 H   0  0  0  0  0  0
    9.1515    2.8493   -5.9781 H   0  0  0  0  0  0
    4.3848    4.2690   -7.2558 H   0  0  0  0  0  0
    4.5099    5.2850   -5.8258 H   0  0  0  0  0  0
    5.5585    5.5805   -7.2118 H   0  0  0  0  0  0
    1.4984    0.9076    2.3669 N   0  3  0  0  0  0
    0.5078    0.9991    2.1881 H   0  0  0  0  0  0
  1 23  1  0  0  0
  1 61  1  0  0  0
  2 27  2  0  0  0
  3  6  1  0  0  0
  3 12  1  0  0  0
  3 13  1  0  0  0
  4 14  1  0  0  0
  4 28  2  0  0  0
  5 27  1  0  0  0
  5 30  1  0  0  0
  5 31  1  0  0  0
  6  7  1  0  0  0
  6  8  1  0  0  0
  6 34  1  0  0  0
  7  9  1  0  0  0
  7 35  1  0  0  0
  7 36  1  0  0  0
  8 10  1  0  0  0
  8 37  1  0  0  0
  8 38  1  0  0  0
  9 39  1  0  0  0
  9 40  1  0  0  0
  9 68  1  0  0  0
 10 41  1  0  0  0
 10 42  1  0  0  0
 10 68  1  0  0  0
 11 14  1  0  0  0
 11 43  1  0  0  0
 11 44  1  0  0  0
 11 68  1  0  0  0
 12 15  2  0  0  0
 12 16  1  0  0  0
 13 17  2  0  0  0
 13 18  1  0  0  0
 14 19  2  0  0  0
 15 20  1  0  0  0
 15 45  1  0  0  0
 16 21  2  0  0  0
 16 46  1  0  0  0
 17 23  1  0  0  0
 17 47  1  0  0  0
 18 24  2  0  0  0
 18 48  1  0  0  0
 19 26  1  0  0  0
 19 49  1  0  0  0
 20 22  2  0  0  0
 20 50  1  0  0  0
 21 22  1  0  0  0
 21 51  1  0  0  0
 22 27  1  0  0  0
 23 25  2  0  0  0
 24 25  1  0  0  0
 24 52  1  0  0  0
 25 53  1  0  0  0
 26 29  2  0  0  0
 26 54  1  0  0  0
 28 29  1  0  0  0
 28 55  1  0  0  0
 29 56  1  0  0  0
 30 32  1  0  0  0
 30 57  1  0  0  0
 30 58  1  0  0  0
 31 33  1  0  0  0
 31 59  1  0  0  0
 31 60  1  0  0  0
 32 62  1  0  0  0
 32 63  1  0  0  0
 32 64  1  0  0  0
 33 65  1  0  0  0
 33 66  1  0  0  0
 33 67  1  0  0  0
 68 69  1  0  0  0
M  CHG  1  68   1
M  END
> <LID>
L020669

> <PC_CID>
22504668

> <Names>


> <CAS_Numbers>


$$$$
10346510
                    3D
 Structure written by MMmdl.
 73 76  0  0  1  0            999 V2000
    4.7965    2.3836   -0.2719 S   0  0  0  0  0  0
    5.3589    2.0364   -1.5856 O   0  0  0  0  0  0
    4.8650    3.7660    0.2244 O   0  0  0  0  0  0
   -4.8775    3.8256   -0.4273 O   0  0  0  0  0  0
    3.0965    2.0076   -0.3245 N   0  0  0  0  0  0
   -6.3363    2.1279   -0.8508 N   0  0  0  0  0  0
   -0.7531   -2.1060    1.1255 C   0  0  0  0  0  0
    0.4124   -3.0429    1.4366 C   0  0  0  0  0  0
   -2.0301   -2.5500    1.8357 C   0  0  0  0  0  0
    0.5956   -3.2149    2.9546 C   0  0  0  0  0  0
   -1.7935   -2.7229    3.3452 C   0  0  0  0  0  0
   -0.6613   -1.0107    0.3274 C   0  0  0  0  0  0
    0.5860   -0.6625   -0.3734 C   0  0  0  0  0  0
   -1.8035   -0.1069    0.1137 C   0  0  0  0  0  0
    1.2723    0.5255   -0.0444 C   0  0  0  0  0  0
   -2.2725    0.7169    1.1596 C   0  0  0  0  0  0
   -2.4067   -0.0168   -1.1581 C   0  0  0  0  0  0
    1.0908   -1.4907   -1.3982 C   0  0  0  0  0  0
    2.4715    0.8739   -0.6997 C   0  0  0  0  0  0
   -3.9784    1.6578   -0.3168 C   0  0  0  0  0  0
   -3.3513    1.5958    0.9453 C   0  0  0  0  0  0
   -3.4854    0.8621   -1.3741 C   0  0  0  0  0  0
    2.2782   -1.1445   -2.0680 C   0  0  0  0  0  0
    2.9672    0.0325   -1.7210 C   0  0  0  0  0  0
   -5.1088    2.6212   -0.5393 C   0  0  0  0  0  0
    5.4547    1.2534    1.0394 C   0  0  0  0  0  0
   -7.4527    3.0364   -1.1505 C   0  0  0  0  0  0
   -6.7051    0.7027   -0.8274 C   0  0  0  0  0  0
    5.4187   -0.2042    0.6138 C   0  0  0  0  0  0
   -7.4789    3.4167   -2.6375 C   0  0  0  0  0  0
   -6.9788    0.2102    0.6013 C   0  0  0  0  0  0
    4.4924   -1.0907    1.2048 C   0  0  0  0  0  0
    6.3189   -0.6861   -0.3602 C   0  0  0  0  0  0
    4.4562   -2.4429    0.8127 C   0  0  0  0  0  0
    6.2798   -2.0376   -0.7543 C   0  0  0  0  0  0
    5.3475   -2.9159   -0.1692 C   0  0  0  0  0  0
    0.2054   -4.0098    0.9764 H   0  0  0  0  0  0
    1.3515   -2.6958    1.0102 H   0  0  0  0  0  0
   -2.8657   -1.8723    1.6699 H   0  0  0  0  0  0
   -2.3360   -3.5043    1.4050 H   0  0  0  0  0  0
    1.3716   -3.9528    3.1604 H   0  0  0  0  0  0
    0.9256   -2.2752    3.4001 H   0  0  0  0  0  0
   -1.5833   -1.7564    3.8056 H   0  0  0  0  0  0
   -2.6895   -3.1162    3.8261 H   0  0  0  0  0  0
    0.8804    1.1651    0.7337 H   0  0  0  0  0  0
   -1.8031    0.6764    2.1317 H   0  0  0  0  0  0
   -2.0414   -0.6230   -1.9744 H   0  0  0  0  0  0
    0.5680   -2.3959   -1.6710 H   0  0  0  0  0  0
   -3.6987    2.2202    1.7560 H   0  0  0  0  0  0
   -3.9321    0.9234   -2.3562 H   0  0  0  0  0  0
    2.6633   -1.7830   -2.8493 H   0  0  0  0  0  0
    3.8734    0.2694   -2.2542 H   0  0  0  0  0  0
    2.5304    2.6163    0.2479 H   0  0  0  0  0  0
    6.4850    1.5438    1.2447 H   0  0  0  0  0  0
    4.8817    1.4137    1.9525 H   0  0  0  0  0  0
   -8.4018    2.5728   -0.8774 H   0  0  0  0  0  0
   -7.3975    3.9388   -0.5392 H   0  0  0  0  0  0
   -7.5980    0.5427   -1.4334 H   0  0  0  0  0  0
   -5.9488    0.0784   -1.2984 H   0  0  0  0  0  0
   -8.3192    4.0767   -2.8532 H   0  0  0  0  0  0
   -6.5663    3.9368   -2.9301 H   0  0  0  0  0  0
   -7.5795    2.5337   -3.2692 H   0  0  0  0  0  0
   -7.2899   -0.8345    0.5962 H   0  0  0  0  0  0
   -6.0909    0.2856    1.2292 H   0  0  0  0  0  0
   -7.7728    0.7900    1.0728 H   0  0  0  0  0  0
    3.8000   -0.7359    1.9540 H   0  0  0  0  0  0
    7.0369   -0.0186   -0.8140 H   0  0  0  0  0  0
    3.7444   -3.1178    1.2640 H   0  0  0  0  0  0
    6.9659   -2.4004   -1.5053 H   0  0  0  0  0  0
    5.3184   -3.9523   -0.4716 H   0  0  0  0  0  0
   -0.6632   -3.6411    3.6036 N   0  3  0  0  0  0
   -0.5138   -3.7067    4.6006 H   0  0  0  0  0  0
   -0.9092   -4.5557    3.2523 H   0  0  0  0  0  0
  1  2  2  0  0  0
  1  3  2  0  0  0
  1  5  1  0  0  0
  1 26  1  0  0  0
  4 25  2  0  0  0
  5 19  1  0  0  0
  5 53  1  0  0  0
  6 25  1  0  0  0
  6 27  1  0  0  0
  6 28  1  0  0  0
  7  8  1  0  0  0
  7  9  1  0  0  0
  7 12  2  0  0  0
  8 10  1  0  0  0
  8 37  1  0  0  0
  8 38  1  0  0  0
  9 11  1  0  0  0
  9 39  1  0  0  0
  9 40  1  0  0  0
 10 41  1  0  0  0
 10 42  1  0  0  0
 10 71  1  0  0  0
 11 43  1  0  0  0
 11 44  1  0  0  0
 11 71  1  0  0  0
 12 13  1  0  0  0
 12 14  1  0  0  0
 13 15  2  0  0  0
 13 18  1  0  0  0
 14 16  2  0  0  0
 14 17  1  0  0  0
 15 19  1  0  0  0
 15 45  1  0  0  0
 16 21  1  0  0  0
 16 46  1  0  0  0
 17 22  2  0  0  0
 17 47  1  0  0  0
 18 23  2  0  0  0
 18 48  1  0  0  0
 19 24  2  0  0  0
 20 21  2  0  0  0
 20 22  1  0  0  0
 20 25  1  0  0  0
 21 49  1  0  0  0
 22 50  1  0  0  0
 23 24  1  0  0  0
 23 51  1  0  0  0
 24 52  1  0  0  0
 26 29  1  0  0  0
 26 54  1  0  0  0
 26 55  1  0  0  0
 27 30  1  0  0  0
 27 56  1  0  0  0
 27 57  1  0  0  0
 28 31  1  0  0  0
 28 58  1  0  0  0
 28 59  1  0  0  0
 29 32  2  0  0  0
 29 33  1  0  0  0
 30 60  1  0  0  0
 30 61  1  0  0  0
 30 62  1  0  0  0
 31 63  1  0  0  0
 31 64  1  0  0  0
 31 65  1  0  0  0
 32 34  1  0  0  0
 32 66  1  0  0  0
 33 35  2  0  0  0
 33 67  1  0  0  0
 34 36  2  0  0  0
 34 68  1  0  0  0
 35 36  1  0  0  0
 35 69  1  0  0  0
 36 70  1  0  0  0
 71 72  1  0  0  0
 71 73  1  0  0  0
M  CHG  1  71   1
M  END
> <LID>
L022980

> <PC_CID>
10346510

> <Names>


> <CAS_Numbers>


$$$$
60728
                    3D
 Structure written by MMmdl.
 66 69  0  0  1  0            999 V2000
    4.2842   -0.0692   -2.4441 F   0  0  0  0  0  0
    5.2061   -1.1055    0.7615 O   0  0  0  0  0  0
   -5.6544   -1.7295    0.9328 O   0  0  0  0  0  0
    3.0989   -0.6148    0.0628 N   0  0  0  0  0  0
   -4.9387   -0.4243   -0.8196 N   0  0  0  0  0  0
   -5.5452    0.5091   -1.6522 N   0  0  0  0  0  0
   -6.9739   -0.2749   -0.2709 N   0  0  0  0  0  0
   -6.7436    0.5973   -1.3289 N   0  0  0  0  0  0
    1.7672    0.0920    0.1510 C   0  0  0  0  0  0
    0.9359   -0.5572    1.3094 C   0  0  0  0  0  0
    0.9003   -0.1799   -1.1295 C   0  0  0  0  0  0
   -0.5609   -0.1595    1.3676 C   0  0  0  0  0  0
   -0.5398    0.3423   -1.0210 C   0  0  0  0  0  0
    1.9451    1.6282    0.2604 C   0  0  0  0  0  0
   -2.6962   -0.0306    0.1461 C   0  0  0  0  0  0
    3.2620   -1.6314   -0.9312 C   0  0  0  0  0  0
    4.1750   -0.4391    0.8953 C   0  0  0  0  0  0
    2.5718    2.3289   -0.7990 C   0  0  0  0  0  0
    1.5323    2.3737    1.3946 C   0  0  0  0  0  0
   -3.5207   -0.7366   -0.9468 C   0  0  0  0  0  0
    4.1740    0.6065    2.0283 C   0  0  0  0  0  0
    2.7578    3.7229   -0.7430 C   0  0  0  0  0  0
    1.7181    3.7682    1.4532 C   0  0  0  0  0  0
    3.8598   -1.3268   -2.1762 C   0  0  0  0  0  0
    2.8430   -2.9546   -0.6632 C   0  0  0  0  0  0
    2.3267    4.4458    0.3825 C   0  0  0  0  0  0
    5.3008    0.4088    3.0567 C   0  0  0  0  0  0
    4.0177   -2.3341   -3.1476 C   0  0  0  0  0  0
    3.0033   -3.9586   -1.6375 C   0  0  0  0  0  0
   -5.8389   -0.9027    0.0410 C   0  0  0  0  0  0
    3.5879   -3.6481   -2.8802 C   0  0  0  0  0  0
   -8.2918   -0.3771    0.3432 C   0  0  0  0  0  0
   -8.3894    0.4930    1.6027 C   0  0  0  0  0  0
    1.3811   -0.3808    2.2851 H   0  0  0  0  0  0
    0.9661   -1.6402    1.1897 H   0  0  0  0  0  0
    0.8034   -1.2484   -1.3227 H   0  0  0  0  0  0
    1.3663    0.2342   -2.0233 H   0  0  0  0  0  0
   -1.0512   -0.7638    2.1321 H   0  0  0  0  0  0
   -0.6964    0.8766    1.6722 H   0  0  0  0  0  0
   -0.5588    1.4203   -0.8539 H   0  0  0  0  0  0
   -1.0437    0.1664   -1.9706 H   0  0  0  0  0  0
   -3.0819   -0.3429    1.1179 H   0  0  0  0  0  0
   -2.8313    1.0512    0.0960 H   0  0  0  0  0  0
    2.9213    1.8009   -1.6722 H   0  0  0  0  0  0
    1.0961    1.8967    2.2567 H   0  0  0  0  0  0
   -3.1886   -0.4449   -1.9431 H   0  0  0  0  0  0
   -3.3885   -1.8176   -0.8795 H   0  0  0  0  0  0
    4.2832    1.5978    1.5893 H   0  0  0  0  0  0
    3.2359    0.5883    2.5723 H   0  0  0  0  0  0
    3.2353    4.2370   -1.5643 H   0  0  0  0  0  0
    1.4008    4.3180    2.3271 H   0  0  0  0  0  0
    2.4031   -3.2062    0.2901 H   0  0  0  0  0  0
    2.4714    5.5152    0.4288 H   0  0  0  0  0  0
    5.2311    1.1530    3.8502 H   0  0  0  0  0  0
    5.2463   -0.5755    3.5232 H   0  0  0  0  0  0
    6.2851    0.5125    2.5983 H   0  0  0  0  0  0
    4.4722   -2.0983   -4.0985 H   0  0  0  0  0  0
    2.6812   -4.9685   -1.4301 H   0  0  0  0  0  0
    3.7121   -4.4192   -3.6264 H   0  0  0  0  0  0
   -9.0535   -0.0760   -0.3772 H   0  0  0  0  0  0
   -8.4952   -1.4194    0.5927 H   0  0  0  0  0  0
   -9.3809    0.4177    2.0495 H   0  0  0  0  0  0
   -7.6627    0.1840    2.3548 H   0  0  0  0  0  0
   -8.2079    1.5430    1.3712 H   0  0  0  0  0  0
   -1.2508   -0.3628    0.0718 N   0  3  0  0  0  0
   -1.1934   -1.3518   -0.1263 H   0  0  0  0  0  0
  1 24  1  0  0  0
  2 17  2  0  0  0
  3 30  2  0  0  0
  4  9  1  0  0  0
  4 16  1  0  0  0
  4 17  1  0  0  0
  5  6  1  0  0  0
  5 20  1  0  0  0
  5 30  1  0  0  0
  6  8  2  0  0  0
  7  8  1  0  0  0
  7 30  1  0  0  0
  7 32  1  0  0  0
  9 10  1  0  0  0
  9 11  1  0  0  0
  9 14  1  0  0  0
 10 12  1  0  0  0
 10 34  1  0  0  0
 10 35  1  0  0  0
 11 13  1  0  0  0
 11 36  1  0  0  0
 11 37  1  0  0  0
 12 38  1  0  0  0
 12 39  1  0  0  0
 12 65  1  0  0  0
 13 40  1  0  0  0
 13 41  1  0  0  0
 13 65  1  0  0  0
 14 18  2  0  0  0
 14 19  1  0  0  0
 15 20  1  0  0  0
 15 42  1  0  0  0
 15 43  1  0  0  0
 15 65  1  0  0  0
 16 24  1  0  0  0
 16 25  2  0  0  0
 17 21  1  0  0  0
 18 22  1  0  0  0
 18 44  1  0  0  0
 19 23  2  0  0  0
 19 45  1  0  0  0
 20 46  1  0  0  0
 20 47  1  0  0  0
 21 27  1  0  0  0
 21 48  1  0  0  0
 21 49  1  0  0  0
 22 26  2  0  0  0
 22 50  1  0  0  0
 23 26  1  0  0  0
 23 51  1  0  0  0
 24 28  2  0  0  0
 25 29  1  0  0  0
 25 52  1  0  0  0
 26 53  1  0  0  0
 27 54  1  0  0  0
 27 55  1  0  0  0
 27 56  1  0  0  0
 28 31  1  0  0  0
 28 57  1  0  0  0
 29 31  2  0  0  0
 29 58  1  0  0  0
 31 59  1  0  0  0
 32 33  1  0  0  0
 32 60  1  0  0  0
 32 61  1  0  0  0
 33 62  1  0  0  0
 33 63  1  0  0  0
 33 64  1  0  0  0
 65 66  1  0  0  0
M  CHG  1  65   1
M  END
> <LID>
L002369

> <PC_CID>
60728

> <Names>
trefentanil

> <CAS_Numbers>
120656-74-8

$$$$
9824883
                    3D
 Structure written by MMmdl.
 67 70  0  0  1  0            999 V2000
   -1.6363    0.1082    8.9904 O   0  0  0  0  0  0
    0.5418   11.0276    3.4981 O   0  0  0  0  0  0
    5.8180    3.2700    3.6806 O   0  0  0  0  0  0
    0.2201    6.2535    3.8229 N   0  0  0  0  0  0
    6.6314    5.3629    4.0589 N   0  0  0  0  0  0
   -0.8321    5.3600    4.3355 C   0  0  0  0  0  0
   -0.6888    5.0543    5.8383 C   0  0  0  0  0  0
   -0.9393    4.0351    3.5551 C   0  0  0  0  0  0
   -1.8484    4.1735    6.3317 C   0  0  0  0  0  0
   -2.0932    3.1747    4.0954 C   0  0  0  0  0  0
   -2.9637    1.9704    6.0592 C   0  0  0  0  0  0
    1.5055    5.8328    3.8401 C   0  0  0  0  0  0
   -0.1670    7.4125    3.2396 C   0  0  0  0  0  0
   -2.5948    1.3940    7.4031 C   0  0  0  0  0  0
    2.0547    5.1911    2.7095 C   0  0  0  0  0  0
    2.3132    6.0351    4.9798 C   0  0  0  0  0  0
    0.3896    8.6384    3.6694 C   0  0  0  0  0  0
   -1.1243    7.4211    2.1986 C   0  0  0  0  0  0
   -3.0740    1.7977    8.6833 C   0  0  0  0  0  0
   -1.7303    0.3634    7.6576 C   0  0  0  0  0  0
    3.3928    4.7527    2.7199 C   0  0  0  0  0  0
    3.6514    5.5978    4.9903 C   0  0  0  0  0  0
    4.2047    4.9687    3.8535 C   0  0  0  0  0  0
   -0.0037    9.8518    3.0716 C   0  0  0  0  0  0
   -1.5176    8.6339    1.6005 C   0  0  0  0  0  0
   -2.4642    0.9934    9.6033 C   0  0  0  0  0  0
   -0.9583    9.8499    2.0363 C   0  0  0  0  0  0
    5.6229    4.4732    3.8586 C   0  0  0  0  0  0
    8.0215    4.8927    4.1750 C   0  0  0  0  0  0
    6.4820    6.8291    4.0255 C   0  0  0  0  0  0
    8.3079    4.2638    5.5486 C   0  0  0  0  0  0
    6.7183    7.4731    5.4004 C   0  0  0  0  0  0
   -1.7879    5.8749    4.2238 H   0  0  0  0  0  0
   -0.6648    5.9839    6.4083 H   0  0  0  0  0  0
    0.2518    4.5400    6.0376 H   0  0  0  0  0  0
   -1.0953    4.2319    2.4942 H   0  0  0  0  0  0
   -0.0091    3.4708    3.6325 H   0  0  0  0  0  0
   -2.7918    4.7166    6.2557 H   0  0  0  0  0  0
   -1.6951    3.9548    7.3884 H   0  0  0  0  0  0
   -2.1196    2.2304    3.5500 H   0  0  0  0  0  0
   -3.0485    3.6709    3.9158 H   0  0  0  0  0  0
   -3.9329    2.4677    6.1210 H   0  0  0  0  0  0
   -3.0804    1.1359    5.3663 H   0  0  0  0  0  0
    1.4483    5.0296    1.8301 H   0  0  0  0  0  0
    1.9069    6.5240    5.8532 H   0  0  0  0  0  0
    1.1209    8.6536    4.4644 H   0  0  0  0  0  0
   -1.5592    6.4976    1.8463 H   0  0  0  0  0  0
   -3.7802    2.5844    8.9052 H   0  0  0  0  0  0
   -1.1216   -0.2724    7.0313 H   0  0  0  0  0  0
    3.7961    4.2564    1.8489 H   0  0  0  0  0  0
    4.2467    5.7416    5.8791 H   0  0  0  0  0  0
   -2.2481    8.6309    0.8050 H   0  0  0  0  0  0
   -2.5049    0.9187   10.6802 H   0  0  0  0  0  0
   -1.2639   10.7768    1.5733 H   0  0  0  0  0  0
    8.2411    4.1730    3.3843 H   0  0  0  0  0  0
    8.7197    5.7152    4.0149 H   0  0  0  0  0  0
    5.5118    7.1423    3.6409 H   0  0  0  0  0  0
    7.1972    7.2392    3.3114 H   0  0  0  0  0  0
    0.2141   11.7817    3.0326 H   0  0  0  0  0  0
    9.3508    3.9546    5.6200 H   0  0  0  0  0  0
    8.1167    4.9689    6.3574 H   0  0  0  0  0  0
    7.6926    3.3810    5.7235 H   0  0  0  0  0  0
    6.5558    8.5500    5.3521 H   0  0  0  0  0  0
    6.0463    7.0724    6.1578 H   0  0  0  0  0  0
    7.7401    7.3147    5.7451 H   0  0  0  0  0  0
   -1.9348    2.9105    5.5492 N   0  3  0  0  0  0
   -1.0468    2.4411    5.6566 H   0  0  0  0  0  0
  1 20  1  0  0  0
  1 26  1  0  0  0
  2 24  1  0  0  0
  2 59  1  0  0  0
  3 28  2  0  0  0
  4  6  1  0  0  0
  4 12  1  0  0  0
  4 13  1  0  0  0
  5 28  1  0  0  0
  5 29  1  0  0  0
  5 30  1  0  0  0
  6  7  1  0  0  0
  6  8  1  0  0  0
  6 33  1  0  0  0
  7  9  1  0  0  0
  7 34  1  0  0  0
  7 35  1  0  0  0
  8 10  1  0  0  0
  8 36  1  0  0  0
  8 37  1  0  0  0
  9 38  1  0  0  0
  9 39  1  0  0  0
  9 66  1  0  0  0
 10 40  1  0  0  0
 10 41  1  0  0  0
 10 66  1  0  0  0
 11 14  1  0  0  0
 11 42  1  0  0  0
 11 43  1  0  0  0
 11 66  1  0  0  0
 12 15  2  0  0  0
 12 16  1  0  0  0
 13 17  2  0  0  0
 13 18  1  0  0  0
 14 19  1  0  0  0
 14 20  2  0  0  0
 15 21  1  0  0  0
 15 44  1  0  0  0
 16 22  2  0  0  0
 16 45  1  0  0  0
 17 24  1  0  0  0
 17 46  1  0  0  0
 18 25  2  0  0  0
 18 47  1  0  0  0
 19 26  2  0  0  0
 19 48  1  0  0  0
 20 49  1  0  0  0
 21 23  2  0  0  0
 21 50  1  0  0  0
 22 23  1  0  0  0
 22 51  1  0  0  0
 23 28  1  0  0  0
 24 27  2  0  0  0
 25 27  1  0  0  0
 25 52  1  0  0  0
 26 53  1  0  0  0
 27 54  1  0  0  0
 29 31  1  0  0  0
 29 55  1  0  0  0
 29 56  1  0  0  0
 30 32  1  0  0  0
 30 57  1  0  0  0
 30 58  1  0  0  0
 31 60  1  0  0  0
 31 61  1  0  0  0
 31 62  1  0  0  0
 32 63  1  0  0  0
 32 64  1  0  0  0
 32 65  1  0  0  0
 66 67  1  0  0  0
M  CHG  1  66   1
M  END
> <LID>
L020667

> <PC_CID>
9824883

> <Names>


> <CAS_Numbers>


$$$$
44215923
                    3D
 Structure written by MMmdl.
 58 60  0  0  1  0            999 V2000
   -0.3756   -0.5698    1.8222 O   0  0  0  0  0  0
    4.2851   -4.2558   -2.7325 O   0  0  0  0  0  0
    0.8205    0.0099   -0.0175 N   0  0  0  0  0  0
   -2.1927    1.7009   -0.5882 N   0  0  0  0  0  0
   -0.2777    2.5200   -1.3322 N   0  0  0  0  0  0
    1.9736   -0.5659    2.1574 C   0  0  1  0  0  0
   -0.3757    0.0333   -0.8924 C   0  0  1  0  0  0
    2.3897   -2.0579    2.2141 C   0  0  0  0  0  0
    2.8966   -2.6725    0.9042 C   0  0  0  0  0  0
    0.7150   -0.3554    1.2883 C   0  0  0  0  0  0
   -0.9324    1.4273   -0.9464 C   0  0  0  0  0  0
    4.2279   -2.4218    0.4665 C   0  0  0  0  0  0
    2.0534   -3.4998    0.1082 C   0  0  0  0  0  0
   -0.1449   -0.5875   -2.2845 C   0  0  0  0  0  0
    2.0914    0.4411   -0.6185 C   0  0  0  0  0  0
   -2.4005    3.0621   -0.7415 C   0  0  0  0  0  0
    4.6809   -2.9563   -0.7574 C   0  0  0  0  0  0
    2.5279   -4.0223   -1.1130 C   0  0  0  0  0  0
    5.2039   -1.5817    1.2767 C   0  0  0  0  0  0
    0.6385   -3.8668    0.5296 C   0  0  0  0  0  0
    3.8344   -3.7484   -1.5489 C   0  0  0  0  0  0
   -1.2020    3.5582   -1.2060 C   0  0  0  0  0  0
   -3.6771    3.7068   -0.4355 C   0  0  0  0  0  0
   -3.8291    5.1002   -0.6188 C   0  0  0  0  0  0
   -4.7814    2.9647    0.0463 C   0  0  0  0  0  0
   -5.0512    5.7375   -0.3291 C   0  0  0  0  0  0
   -6.0046    3.5998    0.3368 C   0  0  0  0  0  0
   -6.1408    4.9873    0.1493 C   0  0  0  0  0  0
    2.8080    0.0299    1.8015 H   0  0  0  0  0  0
   -1.1527   -0.5983   -0.4576 H   0  0  0  0  0  0
    1.5629   -2.6446    2.6119 H   0  0  0  0  0  0
    3.1685   -2.1837    2.9654 H   0  0  0  0  0  0
   -1.0913   -0.6929   -2.8156 H   0  0  0  0  0  0
    0.2951   -1.5819   -2.2013 H   0  0  0  0  0  0
    0.5032    0.0166   -2.9182 H   0  0  0  0  0  0
    1.9610    0.9206   -1.5865 H   0  0  0  0  0  0
    2.5917    1.1882   -0.0024 H   0  0  0  0  0  0
    2.7619   -0.4036   -0.7663 H   0  0  0  0  0  0
    1.4941    0.9087    3.4922 H   0  0  0  0  0  0
    0.9341   -0.5797    3.9134 H   0  0  0  0  0  0
   -2.8742    1.0321   -0.2604 H   0  0  0  0  0  0
    5.6877   -2.7597   -1.0968 H   0  0  0  0  0  0
    1.8863   -4.6438   -1.7206 H   0  0  0  0  0  0
    4.9026   -0.5356    1.2898 H   0  0  0  0  0  0
    5.2829   -1.9426    2.3017 H   0  0  0  0  0  0
    6.2056   -1.6230    0.8479 H   0  0  0  0  0  0
    0.1690   -4.5311   -0.1964 H   0  0  0  0  0  0
    0.6436   -4.3881    1.4868 H   0  0  0  0  0  0
    0.0074   -2.9846    0.6118 H   0  0  0  0  0  0
   -0.9312    4.5730   -1.4570 H   0  0  0  0  0  0
   -3.0058    5.6955   -0.9853 H   0  0  0  0  0  0
   -4.7046    1.8986    0.1993 H   0  0  0  0  0  0
    3.6416   -4.7810   -3.1827 H   0  0  0  0  0  0
   -5.1520    6.8030   -0.4745 H   0  0  0  0  0  0
   -6.8393    3.0209    0.7038 H   0  0  0  0  0  0
   -7.0785    5.4749    0.3717 H   0  0  0  0  0  0
    1.7192   -0.0754    3.5256 N   0  3  0  0  0  0
    2.5362   -0.2179    4.1017 H   0  0  0  0  0  0
  1 10  2  0  0  0
  2 21  1  0  0  0
  2 53  1  0  0  0
  3  7  1  0  0  0
  3 10  1  0  0  0
  3 15  1  0  0  0
  4 11  1  0  0  0
  4 16  1  0  0  0
  4 41  1  0  0  0
  5 11  2  0  0  0
  5 22  1  0  0  0
  6  8  1  0  0  0
  6 10  1  0  0  0
  6 29  1  0  0  0
  6 57  1  0  0  0
  7 11  1  0  0  0
  7 14  1  0  0  0
  7 30  1  0  0  0
  8  9  1  0  0  0
  8 31  1  0  0  0
  8 32  1  0  0  0
  9 12  2  0  0  0
  9 13  1  0  0  0
 12 17  1  0  0  0
 12 19  1  0  0  0
 13 18  2  0  0  0
 13 20  1  0  0  0
 14 33  1  0  0  0
 14 34  1  0  0  0
 14 35  1  0  0  0
 15 36  1  0  0  0
 15 37  1  0  0  0
 15 38  1  0  0  0
 16 22  2  0  0  0
 16 23  1  0  0  0
 17 21  2  0  0  0
 17 42  1  0  0  0
 18 21  1  0  0  0
 18 43  1  0  0  0
 19 44  1  0  0  0
 19 45  1  0  0  0
 19 46  1  0  0  0
 20 47  1  0  0  0
 20 48  1  0  0  0
 20 49  1  0  0  0
 22 50  1  0  0  0
 23 24  2  0  0  0
 23 25  1  0  0  0
 24 26  1  0  0  0
 24 51  1  0  0  0
 25 27  2  0  0  0
 25 52  1  0  0  0
 26 28  2  0  0  0
 26 54  1  0  0  0
 27 28  1  0  0  0
 27 55  1  0  0  0
 28 56  1  0  0  0
 39 57  1  0  0  0
 40 57  1  0  0  0
 57 58  1  0  0  0
M  CHG  1  57   1
M  END
> <LID>
L022796

> <PC_CID>
44215923

> <Names>


> <CAS_Numbers>


$$$$
5284570
                    3D
 Structure written by MMmdl.
 41 45  0  0  1  0            999 V2000
   -1.9248   -0.4532    1.2546 O   0  0  0  0  0  0
   -2.5608   -2.6318   -0.2880 O   0  0  0  0  0  0
   -3.6138    1.8976    0.5961 O   0  0  0  0  0  0
    0.3699   -0.6077    0.6625 C   0  0  1  0  0  0
    1.3843   -1.2363   -0.3098 C   0  0  2  0  0  0
    2.4047   -0.1287   -0.6706 C   0  0  1  0  0  0
   -0.9009   -1.4423    1.0150 C   0  0  2  0  0  0
    1.1430   -0.2366    1.9525 C   0  0  0  0  0  0
   -0.2598    0.6166    0.0741 C   0  0  0  0  0  0
    0.6983   -1.9034   -1.5148 C   0  0  0  0  0  0
    1.7255    1.1113   -1.3330 C   0  0  0  0  0  0
    2.3252    0.7150    1.6781 C   0  0  0  0  0  0
    0.3529    1.5274   -0.7986 C   0  0  0  0  0  0
   -0.3066   -2.9679   -1.0471 C   0  0  0  0  0  0
   -1.3711   -2.3636   -0.1298 C   0  0  0  0  0  0
   -1.5606    0.6550    0.5378 C   0  0  0  0  0  0
    4.3728    1.0510    0.3325 C   0  0  0  0  0  0
   -0.4321    2.6412   -1.1657 C   0  0  0  0  0  0
   -2.3242    1.7808    0.1687 C   0  0  0  0  0  0
   -1.7533    2.7752   -0.6662 C   0  0  0  0  0  0
    1.9152   -2.0369    0.2094 H   0  0  0  0  0  0
    3.1274   -0.5403   -1.3767 H   0  0  0  0  0  0
   -0.7404   -2.0562    1.9015 H   0  0  0  0  0  0
    1.5194   -1.1467    2.4217 H   0  0  0  0  0  0
    0.4738    0.2203    2.6831 H   0  0  0  0  0  0
    1.4481   -2.3693   -2.1548 H   0  0  0  0  0  0
    0.1867   -1.1647   -2.1330 H   0  0  0  0  0  0
    1.5698    0.8814   -2.3875 H   0  0  0  0  0  0
    2.3812    1.9805   -1.3318 H   0  0  0  0  0  0
    1.9647    1.7182    1.4477 H   0  0  0  0  0  0
    2.9302    0.8099    2.5805 H   0  0  0  0  0  0
    0.2075   -3.7644   -0.5087 H   0  0  0  0  0  0
   -0.7934   -3.4271   -1.9079 H   0  0  0  0  0  0
    4.9915    1.0779    1.2301 H   0  0  0  0  0  0
    4.9826    0.6435   -0.4746 H   0  0  0  0  0  0
    4.1105    2.0787    0.0820 H   0  0  0  0  0  0
   -0.0362    3.3814   -1.8453 H   0  0  0  0  0  0
   -2.3453    3.6308   -0.9567 H   0  0  0  0  0  0
   -3.8872    1.1614    1.1224 H   0  0  0  0  0  0
    3.1729    0.2144    0.5656 N   0  3  2  0  0  0
    3.5376   -0.6700    0.8902 H   0  0  0  0  0  0
  1  7  1  0  0  0
  1 16  1  0  0  0
  2 15  2  0  0  0
  3 19  1  0  0  0
  3 39  1  0  0  0
  4  5  1  0  0  0
  4  7  1  0  0  0
  4  8  1  0  0  0
  4  9  1  0  0  0
  5  6  1  0  0  0
  5 10  1  0  0  0
  5 21  1  0  0  0
  6 11  1  0  0  0
  6 22  1  0  0  0
  6 40  1  0  0  0
  7 15  1  0  0  0
  7 23  1  0  0  0
  8 12  1  0  0  0
  8 24  1  0  0  0
  8 25  1  0  0  0
  9 13  2  0  0  0
  9 16  1  0  0  0
 10 14  1  0  0  0
 10 26  1  0  0  0
 10 27  1  0  0  0
 11 13  1  0  0  0
 11 28  1  0  0  0
 11 29  1  0  0  0
 12 30  1  0  0  0
 12 31  1  0  0  0
 12 40  1  0  0  0
 13 18  1  0  0  0
 14 15  1  0  0  0
 14 32  1  0  0  0
 14 33  1  0  0  0
 16 19  2  0  0  0
 17 34  1  0  0  0
 17 35  1  0  0  0
 17 36  1  0  0  0
 17 40  1  0  0  0
 18 20  2  0  0  0
 18 37  1  0  0  0
 19 20  1  0  0  0
 20 38  1  0  0  0
 40 41  1  0  0  0
M  CHG  1  40   1
M  END
> <LID>
L000830

> <PC_CID>
5284570

> <Names>
Dihydromorphine;Hydromorphone

> <CAS_Numbers>
18145-12-5;41376-02-7;466-99-9

$$$$
9825844
                    3D
 Structure written by MMmdl.
 69 72  0  0  1  0            999 V2000
    4.9855   -0.6055    2.5560 O   0  0  0  0  0  0
   -4.5739   -0.5467    0.8854 O   0  0  0  0  0  0
   -2.3565   -0.0083    0.8656 N   0  0  0  0  0  0
    5.5648   -0.6462    0.3532 N   0  0  0  0  0  0
   -0.8799    2.3457   -0.9642 C   0  0  0  0  0  0
   -0.0312    2.1975   -2.2236 C   0  0  0  0  0  0
   -2.2755    2.8678   -1.2978 C   0  0  0  0  0  0
   -0.7471    1.3130   -3.2589 C   0  0  0  0  0  0
   -2.9527    1.9838   -2.3607 C   0  0  0  0  0  0
   -0.4568    2.0439    0.2907 C   0  0  0  0  0  0
   -1.3712    2.1444    1.4456 C   0  0  0  0  0  0
    0.8623    1.4385    0.5455 C   0  0  0  0  0  0
   -2.3194    1.1259    1.7207 C   0  0  0  0  0  0
    1.1566    0.1409    0.0719 C   0  0  0  0  0  0
    1.8304    2.1273    1.3061 C   0  0  0  0  0  0
   -1.2871    3.2646    2.3000 C   0  0  0  0  0  0
    3.3873    0.2571    1.0655 C   0  0  0  0  0  0
    2.4081   -0.4483    0.3329 C   0  0  0  0  0  0
    3.0829    1.5395    1.5682 C   0  0  0  0  0  0
   -3.1646    1.2426    2.8496 C   0  0  0  0  0  0
   -2.1391    3.3803    3.4139 C   0  0  0  0  0  0
    4.7161   -0.3687    1.3778 C   0  0  0  0  0  0
   -3.0769    2.3688    3.6889 C   0  0  0  0  0  0
    6.8432   -1.3272    0.6053 C   0  0  0  0  0  0
    5.3658   -0.2304   -1.0451 C   0  0  0  0  0  0
   -3.4205   -0.7467    0.5050 C   0  0  0  0  0  0
    6.6770   -2.8530    0.5811 C   0  0  0  0  0  0
    5.7493    1.2412   -1.2598 C   0  0  0  0  0  0
   -3.1241   -1.8018   -0.5222 C   0  0  0  0  0  0
   -4.0951   -2.1289   -1.4954 C   0  0  0  0  0  0
   -1.8900   -2.4948   -0.5212 C   0  0  0  0  0  0
   -3.8297   -3.1152   -2.4652 C   0  0  0  0  0  0
   -1.6258   -3.4804   -1.4919 C   0  0  0  0  0  0
   -2.5941   -3.7892   -2.4657 C   0  0  0  0  0  0
    0.1267    3.1927   -2.6412 H   0  0  0  0  0  0
    0.9632    1.8034   -2.0221 H   0  0  0  0  0  0
   -2.1733    3.8849   -1.6781 H   0  0  0  0  0  0
   -2.9196    2.9399   -0.4225 H   0  0  0  0  0  0
   -0.8330    0.2913   -2.8852 H   0  0  0  0  0  0
   -0.1691    1.2669   -4.1822 H   0  0  0  0  0  0
   -3.9105    2.4130   -2.6556 H   0  0  0  0  0  0
   -3.1622    0.9954   -1.9511 H   0  0  0  0  0  0
    0.4206   -0.4089   -0.4958 H   0  0  0  0  0  0
    1.6179    3.1133    1.6917 H   0  0  0  0  0  0
   -0.5689    4.0459    2.0988 H   0  0  0  0  0  0
    2.6131   -1.4448   -0.0314 H   0  0  0  0  0  0
    3.8126    2.0809    2.1533 H   0  0  0  0  0  0
   -3.8772    0.4688    3.0933 H   0  0  0  0  0  0
   -2.0696    4.2429    4.0603 H   0  0  0  0  0  0
   -1.4955   -0.2138    0.3815 H   0  0  0  0  0  0
   -3.7252    2.4528    4.5488 H   0  0  0  0  0  0
    7.5833   -1.0307   -0.1393 H   0  0  0  0  0  0
    7.2697   -1.0169    1.5607 H   0  0  0  0  0  0
    5.9716   -0.8533   -1.7049 H   0  0  0  0  0  0
    4.3452   -0.4021   -1.3801 H   0  0  0  0  0  0
    7.6326   -3.3490    0.7524 H   0  0  0  0  0  0
    5.9866   -3.1893    1.3552 H   0  0  0  0  0  0
    6.2941   -3.1934   -0.3814 H   0  0  0  0  0  0
    5.6348    1.5209   -2.3071 H   0  0  0  0  0  0
    5.1218    1.9099   -0.6706 H   0  0  0  0  0  0
    6.7874    1.4229   -0.9802 H   0  0  0  0  0  0
   -5.0486   -1.6204   -1.5083 H   0  0  0  0  0  0
   -1.1363   -2.2831    0.2236 H   0  0  0  0  0  0
   -4.5759   -3.3560   -3.2081 H   0  0  0  0  0  0
   -0.6808   -4.0036   -1.4863 H   0  0  0  0  0  0
   -2.3916   -4.5468   -3.2085 H   0  0  0  0  0  0
   -2.0988    1.8344   -3.5597 N   0  3  0  0  0  0
   -2.5543    1.2120   -4.2122 H   0  0  0  0  0  0
   -1.9997    2.7413   -3.9936 H   0  0  0  0  0  0
  1 22  2  0  0  0
  2 26  2  0  0  0
  3 13  1  0  0  0
  3 26  1  0  0  0
  3 50  1  0  0  0
  4 22  1  0  0  0
  4 24  1  0  0  0
  4 25  1  0  0  0
  5  6  1  0  0  0
  5  7  1  0  0  0
  5 10  2  0  0  0
  6  8  1  0  0  0
  6 35  1  0  0  0
  6 36  1  0  0  0
  7  9  1  0  0  0
  7 37  1  0  0  0
  7 38  1  0  0  0
  8 39  1  0  0  0
  8 40  1  0  0  0
  8 67  1  0  0  0
  9 41  1  0  0  0
  9 42  1  0  0  0
  9 67  1  0  0  0
 10 11  1  0  0  0
 10 12  1  0  0  0
 11 13  1  0  0  0
 11 16  2  0  0  0
 12 14  2  0  0  0
 12 15  1  0  0  0
 13 20  2  0  0  0
 14 18  1  0  0  0
 14 43  1  0  0  0
 15 19  2  0  0  0
 15 44  1  0  0  0
 16 21  1  0  0  0
 16 45  1  0  0  0
 17 18  2  0  0  0
 17 19  1  0  0  0
 17 22  1  0  0  0
 18 46  1  0  0  0
 19 47  1  0  0  0
 20 23  1  0  0  0
 20 48  1  0  0  0
 21 23  2  0  0  0
 21 49  1  0  0  0
 23 51  1  0  0  0
 24 27  1  0  0  0
 24 52  1  0  0  0
 24 53  1  0  0  0
 25 28  1  0  0  0
 25 54  1  0  0  0
 25 55  1  0  0  0
 26 29  1  0  0  0
 27 56  1  0  0  0
 27 57  1  0  0  0
 27 58  1  0  0  0
 28 59  1  0  0  0
 28 60  1  0  0  0
 28 61  1  0  0  0
 29 30  2  0  0  0
 29 31  1  0  0  0
 30 32  1  0  0  0
 30 62  1  0  0  0
 31 33  2  0  0  0
 31 63  1  0  0  0
 32 34  2  0  0  0
 32 64  1  0  0  0
 33 34  1  0  0  0
 33 65  1  0  0  0
 34 66  1  0  0  0
 67 68  1  0  0  0
 67 69  1  0  0  0
M  CHG  1  67   1
M  END
> <LID>
L023440

> <PC_CID>
9825844

> <Names>


> <CAS_Numbers>


$$$$
22380754
                    3D
 Structure written by MMmdl.
 81 85  0  0  1  0            999 V2000
    2.3926    2.5261    1.2160 O   0  0  0  0  0  0
   -4.3557    3.1423   -0.4214 O   0  0  0  0  0  0
    4.2531   -4.1528    0.0627 O   0  0  0  0  0  0
   -4.0904    0.8430   -0.3716 N   0  0  0  0  0  0
   -6.1048    1.6863   -0.2028 N   0  0  0  0  0  0
    2.6368   -3.3075   -1.2987 N   0  0  0  0  0  0
   -2.6329    0.6918   -0.5160 C   0  0  1  0  0  0
   -2.0993    1.2574   -1.8557 C   0  0  1  0  0  0
   -1.8816    1.3349    0.6659 C   0  0  0  0  0  0
   -0.5671    1.0945   -1.9276 C   0  0  0  0  0  0
   -0.3642    1.1599    0.5164 C   0  0  0  0  0  0
   -2.7698    0.6032   -3.0769 C   0  0  0  0  0  0
    1.5936    1.7037   -0.9083 C   0  0  0  0  0  0
   -4.9888   -0.2371   -0.2579 C   0  0  0  0  0  0
   -4.8030    2.0001   -0.3381 C   0  0  0  0  0  0
   -6.2540    0.3027   -0.1518 C   0  0  0  0  0  0
    2.2988    2.8479   -0.1636 C   0  0  0  0  0  0
   -4.7829   -1.6295   -0.2442 C   0  0  0  0  0  0
   -7.4063   -0.4880   -0.0232 C   0  0  0  0  0  0
   -5.9258   -2.4542   -0.1156 C   0  0  0  0  0  0
   -7.2234   -1.8903   -0.0061 C   0  0  0  0  0  0
    3.3867    3.1255    1.9574 C   0  0  0  0  0  0
    3.8039    2.4814    3.1476 C   0  0  0  0  0  0
    3.9936    4.3514    1.5864 C   0  0  0  0  0  0
    3.1540    1.1789    3.6003 C   0  0  0  0  0  0
    4.8253    3.0523    3.9371 C   0  0  0  0  0  0
    5.0110    4.9141    2.3796 C   0  0  0  0  0  0
    3.2323    0.0403    2.5923 C   0  0  0  0  0  0
    5.4298    4.2632    3.5534 C   0  0  0  0  0  0
    4.4329   -0.2384    1.9047 C   0  0  0  0  0  0
    2.0963   -0.7604    2.3532 C   0  0  0  0  0  0
    3.3494   -2.0891    0.7256 C   0  0  0  0  0  0
    4.4911   -1.2991    0.9795 C   0  0  0  0  0  0
    2.1555   -1.8230    1.4315 C   0  0  0  0  0  0
    3.4464   -3.2623   -0.2080 C   0  0  0  0  0  0
    2.6056   -4.5018   -2.1562 C   0  0  0  0  0  0
    1.8329   -2.1836   -1.8045 C   0  0  0  0  0  0
    1.6084   -5.5421   -1.6273 C   0  0  0  0  0  0
    2.6800   -1.2353   -2.6649 C   0  0  0  0  0  0
   -2.3955   -0.3713   -0.4994 H   0  0  0  0  0  0
   -2.3130    2.3262   -1.8988 H   0  0  0  0  0  0
   -2.2111    0.8865    1.6040 H   0  0  0  0  0  0
   -2.1084    2.3991    0.7367 H   0  0  0  0  0  0
   -0.3008    0.0372   -1.9687 H   0  0  0  0  0  0
   -0.2068    1.5457   -2.8532 H   0  0  0  0  0  0
    0.1240    1.6461    1.3592 H   0  0  0  0  0  0
   -0.1028    0.1020    0.5657 H   0  0  0  0  0  0
   -2.3645    1.0014   -4.0074 H   0  0  0  0  0  0
   -2.6154   -0.4763   -3.0822 H   0  0  0  0  0  0
   -3.8446    0.7847   -3.0912 H   0  0  0  0  0  0
    1.9950    0.7368   -0.6025 H   0  0  0  0  0  0
    1.8453    1.8164   -1.9635 H   0  0  0  0  0  0
    3.2989    2.9514   -0.5885 H   0  0  0  0  0  0
    1.7775    3.7952   -0.3077 H   0  0  0  0  0  0
   -6.8749    2.3367   -0.1504 H   0  0  0  0  0  0
   -3.7992   -2.0655   -0.3280 H   0  0  0  0  0  0
   -8.3888   -0.0468    0.0584 H   0  0  0  0  0  0
   -5.8088   -3.5279   -0.1010 H   0  0  0  0  0  0
   -8.0814   -2.5393    0.0910 H   0  0  0  0  0  0
    3.6879    4.8811    0.6969 H   0  0  0  0  0  0
    3.6106    0.8372    4.5298 H   0  0  0  0  0  0
    2.1098    1.3902    3.8338 H   0  0  0  0  0  0
    5.1491    2.5646    4.8449 H   0  0  0  0  0  0
    5.4692    5.8477    2.0879 H   0  0  0  0  0  0
    6.2102    4.6951    4.1627 H   0  0  0  0  0  0
    5.3155    0.3569    2.0874 H   0  0  0  0  0  0
    1.1748   -0.5686    2.8832 H   0  0  0  0  0  0
    5.4203   -1.5079    0.4689 H   0  0  0  0  0  0
    1.2817   -2.4393    1.2758 H   0  0  0  0  0  0
    2.3356   -4.2297   -3.1775 H   0  0  0  0  0  0
    3.5977   -4.9490   -2.2399 H   0  0  0  0  0  0
    1.0057   -2.5656   -2.4045 H   0  0  0  0  0  0
    1.3489   -1.6278   -1.0052 H   0  0  0  0  0  0
    1.5789   -6.4157   -2.2786 H   0  0  0  0  0  0
    1.8828   -5.8835   -0.6287 H   0  0  0  0  0  0
    0.5995   -5.1316   -1.5763 H   0  0  0  0  0  0
    2.0653   -0.4385   -3.0833 H   0  0  0  0  0  0
    3.4748   -0.7707   -2.0807 H   0  0  0  0  0  0
    3.1431   -1.7647   -3.4980 H   0  0  0  0  0  0
    0.1140    1.7315   -0.7695 N   0  3  1  0  0  0
   -0.1608    2.7036   -0.7827 H   0  0  0  0  0  0
  1 17  1  0  0  0
  1 22  1  0  0  0
  2 15  2  0  0  0
  3 35  2  0  0  0
  4  7  1  0  0  0
  4 14  1  0  0  0
  4 15  1  0  0  0
  5 15  1  0  0  0
  5 16  1  0  0  0
  5 55  1  0  0  0
  6 35  1  0  0  0
  6 36  1  0  0  0
  6 37  1  0  0  0
  7  8  1  0  0  0
  7  9  1  0  0  0
  7 40  1  0  0  0
  8 10  1  0  0  0
  8 12  1  0  0  0
  8 41  1  0  0  0
  9 11  1  0  0  0
  9 42  1  0  0  0
  9 43  1  0  0  0
 10 44  1  0  0  0
 10 45  1  0  0  0
 10 80  1  0  0  0
 11 46  1  0  0  0
 11 47  1  0  0  0
 11 80  1  0  0  0
 12 48  1  0  0  0
 12 49  1  0  0  0
 12 50  1  0  0  0
 13 17  1  0  0  0
 13 51  1  0  0  0
 13 52  1  0  0  0
 13 80  1  0  0  0
 14 16  1  0  0  0
 14 18  2  0  0  0
 16 19  2  0  0  0
 17 53  1  0  0  0
 17 54  1  0  0  0
 18 20  1  0  0  0
 18 56  1  0  0  0
 19 21  1  0  0  0
 19 57  1  0  0  0
 20 21  2  0  0  0
 20 58  1  0  0  0
 21 59  1  0  0  0
 22 23  1  0  0  0
 22 24  2  0  0  0
 23 25  1  0  0  0
 23 26  2  0  0  0
 24 27  1  0  0  0
 24 60  1  0  0  0
 25 28  1  0  0  0
 25 61  1  0  0  0
 25 62  1  0  0  0
 26 29  1  0  0  0
 26 63  1  0  0  0
 27 29  2  0  0  0
 27 64  1  0  0  0
 28 30  2  0  0  0
 28 31  1  0  0  0
 29 65  1  0  0  0
 30 33  1  0  0  0
 30 66  1  0  0  0
 31 34  2  0  0  0
 31 67  1  0  0  0
 32 33  2  0  0  0
 32 34  1  0  0  0
 32 35  1  0  0  0
 33 68  1  0  0  0
 34 69  1  0  0  0
 36 38  1  0  0  0
 36 70  1  0  0  0
 36 71  1  0  0  0
 37 39  1  0  0  0
 37 72  1  0  0  0
 37 73  1  0  0  0
 38 74  1  0  0  0
 38 75  1  0  0  0
 38 76  1  0  0  0
 39 77  1  0  0  0
 39 78  1  0  0  0
 39 79  1  0  0  0
 80 81  1  0  0  0
M  CHG  1  80   1
M  END
> <LID>
L020699

> <PC_CID>
22380754

> <Names>


> <CAS_Numbers>


$$$$
10342729
                    3D
 Structure written by MMmdl.
 70 73  0  0  1  0            999 V2000
    4.0825    3.0696   -1.1333 O   0  0  0  0  0  0
   -3.6834    1.6263    0.9888 N   0  0  0  0  0  0
    5.5527    1.4785   -0.4288 N   0  0  0  0  0  0
   -4.8723    2.4734    0.9786 C   0  0  0  0  0  0
   -6.2134    1.7274    1.1003 C   0  0  0  0  0  0
   -4.9930    3.4087   -0.2303 C   0  0  0  0  0  0
   -7.1831    2.4558    0.1565 C   0  0  0  0  0  0
   -6.4809    3.7526   -0.2595 C   0  0  0  0  0  0
   -3.2883    0.6513    0.1411 C   0  0  0  0  0  0
   -0.1351   -2.9313    0.1348 C   0  0  0  0  0  0
   -0.2603   -1.6201   -0.1967 C   0  0  0  0  0  0
    1.2007   -3.6394    0.3538 C   0  0  0  0  0  0
   -1.3121   -3.8818    0.3460 C   0  0  0  0  0  0
   -2.0454    0.0292    0.3834 C   0  0  0  0  0  0
   -1.5715   -1.0011   -0.4565 C   0  0  0  0  0  0
    1.2401   -4.3412    1.7211 C   0  0  0  0  0  0
   -1.2170   -4.5890    1.7096 C   0  0  0  0  0  0
   -4.0597    0.2318   -0.9673 C   0  0  0  0  0  0
    0.9119   -0.7394   -0.3283 C   0  0  0  0  0  0
   -2.3470   -1.3977   -1.5666 C   0  0  0  0  0  0
   -3.5888   -0.7863   -1.8175 C   0  0  0  0  0  0
    1.6468   -0.3482    0.8116 C   0  0  0  0  0  0
    1.2799   -0.2343   -1.5927 C   0  0  0  0  0  0
    3.1451    0.9855   -0.5871 C   0  0  0  0  0  0
    2.7548    0.5110    0.6844 C   0  0  0  0  0  0
    2.3876    0.6254   -1.7215 C   0  0  0  0  0  0
    4.3066    1.9257   -0.7357 C   0  0  0  0  0  0
    6.7080    2.3861   -0.4876 C   0  0  0  0  0  0
    5.8959    0.0813   -0.1157 C   0  0  0  0  0  0
    6.8969    3.1356    0.8386 C   0  0  0  0  0  0
    6.0111   -0.7736   -1.3864 C   0  0  0  0  0  0
   -4.7901    3.1128    1.8586 H   0  0  0  0  0  0
   -6.1427    0.6729    0.8339 H   0  0  0  0  0  0
   -6.5686    1.7669    2.1305 H   0  0  0  0  0  0
   -4.3623    4.2931   -0.1355 H   0  0  0  0  0  0
   -4.7172    2.9096   -1.1584 H   0  0  0  0  0  0
   -8.1524    2.6427    0.6197 H   0  0  0  0  0  0
   -7.3574    1.8401   -0.7268 H   0  0  0  0  0  0
   -6.8094    4.1133   -1.2346 H   0  0  0  0  0  0
   -6.6904    4.5344    0.4719 H   0  0  0  0  0  0
   -3.0408    1.8290    1.7410 H   0  0  0  0  0  0
    1.3179   -4.3806   -0.4377 H   0  0  0  0  0  0
    2.0556   -2.9721    0.2596 H   0  0  0  0  0  0
   -1.3014   -4.6210   -0.4559 H   0  0  0  0  0  0
   -2.2740   -3.3757    0.2837 H   0  0  0  0  0  0
   -1.4443    0.3421    1.2253 H   0  0  0  0  0  0
    2.1655   -4.9074    1.8293 H   0  0  0  0  0  0
    1.2232   -3.6023    2.5236 H   0  0  0  0  0  0
   -1.3540   -3.8667    2.5158 H   0  0  0  0  0  0
   -2.0119   -5.3287    1.8082 H   0  0  0  0  0  0
   -5.0165    0.6798   -1.1854 H   0  0  0  0  0  0
   -1.9903   -2.1740   -2.2278 H   0  0  0  0  0  0
   -4.1814   -1.0968   -2.6654 H   0  0  0  0  0  0
    1.3593   -0.7065    1.7894 H   0  0  0  0  0  0
    0.7114   -0.5064   -2.4703 H   0  0  0  0  0  0
    3.3031    0.8059    1.5676 H   0  0  0  0  0  0
    2.6568    1.0039   -2.6973 H   0  0  0  0  0  0
    7.6158    1.8285   -0.7222 H   0  0  0  0  0  0
    6.6017    3.1017   -1.3047 H   0  0  0  0  0  0
    6.8450    0.0460    0.4212 H   0  0  0  0  0  0
    5.1840   -0.3687    0.5729 H   0  0  0  0  0  0
    7.7650    3.7933    0.7910 H   0  0  0  0  0  0
    6.0281    3.7513    1.0737 H   0  0  0  0  0  0
    7.0507    2.4421    1.6658 H   0  0  0  0  0  0
    6.3052   -1.7938   -1.1396 H   0  0  0  0  0  0
    5.0636   -0.8254   -1.9229 H   0  0  0  0  0  0
    6.7601   -0.3685   -2.0675 H   0  0  0  0  0  0
    0.0908   -5.2582    1.8795 N   0  3  0  0  0  0
    0.1287   -5.6781    2.7977 H   0  0  0  0  0  0
    0.1677   -5.9886    1.1860 H   0  0  0  0  0  0
  1 27  2  0  0  0
  2  4  1  0  0  0
  2  9  1  0  0  0
  2 41  1  0  0  0
  3 27  1  0  0  0
  3 28  1  0  0  0
  3 29  1  0  0  0
  4  5  1  0  0  0
  4  6  1  0  0  0
  4 32  1  0  0  0
  5  7  1  0  0  0
  5 33  1  0  0  0
  5 34  1  0  0  0
  6  8  1  0  0  0
  6 35  1  0  0  0
  6 36  1  0  0  0
  7  8  1  0  0  0
  7 37  1  0  0  0
  7 38  1  0  0  0
  8 39  1  0  0  0
  8 40  1  0  0  0
  9 14  1  0  0  0
  9 18  2  0  0  0
 10 11  2  0  0  0
 10 12  1  0  0  0
 10 13  1  0  0  0
 11 15  1  0  0  0
 11 19  1  0  0  0
 12 16  1  0  0  0
 12 42  1  0  0  0
 12 43  1  0  0  0
 13 17  1  0  0  0
 13 44  1  0  0  0
 13 45  1  0  0  0
 14 15  2  0  0  0
 14 46  1  0  0  0
 15 20  1  0  0  0
 16 47  1  0  0  0
 16 48  1  0  0  0
 16 68  1  0  0  0
 17 49  1  0  0  0
 17 50  1  0  0  0
 17 68  1  0  0  0
 18 21  1  0  0  0
 18 51  1  0  0  0
 19 22  2  0  0  0
 19 23  1  0  0  0
 20 21  2  0  0  0
 20 52  1  0  0  0
 21 53  1  0  0  0
 22 25  1  0  0  0
 22 54  1  0  0  0
 23 26  2  0  0  0
 23 55  1  0  0  0
 24 25  2  0  0  0
 24 26  1  0  0  0
 24 27  1  0  0  0
 25 56  1  0  0  0
 26 57  1  0  0  0
 28 30  1  0  0  0
 28 58  1  0  0  0
 28 59  1  0  0  0
 29 31  1  0  0  0
 29 60  1  0  0  0
 29 61  1  0  0  0
 30 62  1  0  0  0
 30 63  1  0  0  0
 30 64  1  0  0  0
 31 65  1  0  0  0
 31 66  1  0  0  0
 31 67  1  0  0  0
 68 69  1  0  0  0
 68 70  1  0  0  0
M  CHG  1  68   1
M  END
> <LID>
L022977

> <PC_CID>
10342729

> <Names>


> <CAS_Numbers>


$$$$
18936195
                    3D
 Structure written by MMmdl.
 66 69  0  0  1  0            999 V2000
   -0.5148   -4.9095    1.3207 O   0  0  0  0  0  0
    4.3137   -0.8091    1.3841 O   0  0  0  0  0  0
    1.5387    0.1304    1.1784 N   0  0  0  0  0  0
    4.7564    1.0508    0.1556 N   0  0  0  0  0  0
   -2.1952   -0.2786    0.4135 C   0  0  2  0  0  0
   -2.0288    0.3422   -1.0230 C   0  0  2  0  0  0
   -3.5248    0.2436    1.0273 C   0  0  0  0  0  0
   -1.0008    0.1751    1.3231 C   0  0  0  0  0  0
   -0.6871   -0.0394   -1.7120 C   0  0  0  0  0  0
   -2.2271    1.8750   -1.0153 C   0  0  0  0  0  0
   -3.7085    1.7707    0.9388 C   0  0  0  0  0  0
    0.2965    0.1062    0.5950 C   0  0  0  0  0  0
    0.4718    0.0181   -0.7518 C   0  0  0  0  0  0
   -2.2744   -1.8230    0.2743 C   0  0  0  0  0  0
    1.8777   -0.0309   -1.0144 C   0  0  0  0  0  0
   -3.8212    3.7082   -0.6052 C   0  0  0  0  0  0
    2.5108    0.0775    0.2029 C   0  0  0  0  0  0
   -1.3353   -2.6986    0.8809 C   0  0  0  0  0  0
   -3.3113   -2.4071   -0.4971 C   0  0  0  0  0  0
    2.5120   -0.1940   -2.3730 C   0  0  0  0  0  0
   -5.3165    4.0438   -0.5046 C   0  0  0  0  0  0
   -1.4339   -4.0951    0.7261 C   0  0  0  0  0  0
   -3.4127   -3.8024   -0.6525 C   0  0  0  0  0  0
    3.9320    0.0743    0.6154 C   0  0  0  0  0  0
   -2.4742   -4.6498   -0.0399 C   0  0  0  0  0  0
    6.1965    1.0197    0.4492 C   0  0  0  0  0  0
    4.3067    2.2625   -0.5482 C   0  0  0  0  0  0
    6.9576    0.1845   -0.5897 C   0  0  0  0  0  0
    3.7760    3.3192    0.4316 C   0  0  0  0  0  0
   -2.8226   -0.0316   -1.6699 H   0  0  0  0  0  0
   -3.6069   -0.0803    2.0657 H   0  0  0  0  0  0
   -4.3800   -0.1982    0.5175 H   0  0  0  0  0  0
   -1.1226    1.2128    1.6254 H   0  0  0  0  0  0
   -0.9688   -0.3758    2.2631 H   0  0  0  0  0  0
   -0.7456   -1.0614   -2.0878 H   0  0  0  0  0  0
   -0.4867    0.5964   -2.5749 H   0  0  0  0  0  0
   -1.4329    2.3712   -0.4557 H   0  0  0  0  0  0
   -2.1577    2.2430   -2.0400 H   0  0  0  0  0  0
   -4.7057    2.0135    1.3042 H   0  0  0  0  0  0
   -3.0141    2.2944    1.5955 H   0  0  0  0  0  0
    1.7200    0.1828    2.1708 H   0  0  0  0  0  0
   -3.2487    4.2755    0.1303 H   0  0  0  0  0  0
   -3.4756    4.0398   -1.5853 H   0  0  0  0  0  0
   -0.5112   -2.3310    1.4707 H   0  0  0  0  0  0
   -4.0485   -1.7901   -0.9878 H   0  0  0  0  0  0
    2.0830   -1.0551   -2.8857 H   0  0  0  0  0  0
    2.3332    0.6918   -2.9824 H   0  0  0  0  0  0
    3.5883   -0.3479   -2.2934 H   0  0  0  0  0  0
   -5.4853    5.0998   -0.7169 H   0  0  0  0  0  0
   -5.9006    3.4675   -1.2228 H   0  0  0  0  0  0
   -5.7166    3.8500    0.4901 H   0  0  0  0  0  0
   -4.2121   -4.2227   -1.2448 H   0  0  0  0  0  0
   -2.5548   -5.7200   -0.1624 H   0  0  0  0  0  0
   -0.6652   -5.8269    1.1524 H   0  0  0  0  0  0
    6.6019    2.0324    0.4672 H   0  0  0  0  0  0
    6.3837    0.6263    1.4497 H   0  0  0  0  0  0
    5.1335    2.6869   -1.1195 H   0  0  0  0  0  0
    3.5473    2.0431   -1.2941 H   0  0  0  0  0  0
    8.0264    0.1809   -0.3758 H   0  0  0  0  0  0
    6.6172   -0.8515   -0.5923 H   0  0  0  0  0  0
    6.8210    0.5850   -1.5946 H   0  0  0  0  0  0
    3.4799    4.2239   -0.0996 H   0  0  0  0  0  0
    2.9036    2.9564    0.9758 H   0  0  0  0  0  0
    4.5358    3.5974    1.1624 H   0  0  0  0  0  0
   -3.5485    2.2555   -0.4556 N   0  3  1  0  0  0
   -4.2392    1.7772   -1.0165 H   0  0  0  0  0  0
  1 22  1  0  0  0
  1 54  1  0  0  0
  2 24  2  0  0  0
  3 12  1  0  0  0
  3 17  1  0  0  0
  3 41  1  0  0  0
  4 24  1  0  0  0
  4 26  1  0  0  0
  4 27  1  0  0  0
  5  6  1  0  0  0
  5  7  1  0  0  0
  5  8  1  0  0  0
  5 14  1  0  0  0
  6  9  1  0  0  0
  6 10  1  0  0  0
  6 30  1  0  0  0
  7 11  1  0  0  0
  7 31  1  0  0  0
  7 32  1  0  0  0
  8 12  1  0  0  0
  8 33  1  0  0  0
  8 34  1  0  0  0
  9 13  1  0  0  0
  9 35  1  0  0  0
  9 36  1  0  0  0
 10 37  1  0  0  0
 10 38  1  0  0  0
 10 65  1  0  0  0
 11 39  1  0  0  0
 11 40  1  0  0  0
 11 65  1  0  0  0
 12 13  2  0  0  0
 13 15  1  0  0  0
 14 18  2  0  0  0
 14 19  1  0  0  0
 15 17  2  0  0  0
 15 20  1  0  0  0
 16 21  1  0  0  0
 16 42  1  0  0  0
 16 43  1  0  0  0
 16 65  1  0  0  0
 17 24  1  0  0  0
 18 22  1  0  0  0
 18 44  1  0  0  0
 19 23  2  0  0  0
 19 45  1  0  0  0
 20 46  1  0  0  0
 20 47  1  0  0  0
 20 48  1  0  0  0
 21 49  1  0  0  0
 21 50  1  0  0  0
 21 51  1  0  0  0
 22 25  2  0  0  0
 23 25  1  0  0  0
 23 52  1  0  0  0
 25 53  1  0  0  0
 26 28  1  0  0  0
 26 55  1  0  0  0
 26 56  1  0  0  0
 27 29  1  0  0  0
 27 57  1  0  0  0
 27 58  1  0  0  0
 28 59  1  0  0  0
 28 60  1  0  0  0
 28 61  1  0  0  0
 29 62  1  0  0  0
 29 63  1  0  0  0
 29 64  1  0  0  0
 65 66  1  0  0  0
M  CHG  1  65   1
M  END
> <LID>
L012491

> <PC_CID>
18936195

> <Names>


> <CAS_Numbers>


$$$$
9951953
                    3D
 Structure written by MMmdl.
 53 56  0  0  1  0            999 V2000
    2.6427   -3.9763    0.7962 O   0  0  0  0  0  0
   -1.7020   -0.2341    0.6304 N   0  0  0  0  0  0
    1.5619    1.6599    0.0049 C   0  0  1  0  0  0
    0.6213    0.4978    0.4378 C   0  0  1  0  0  0
    0.8935    3.0387    0.1629 C   0  0  0  0  0  0
   -0.4160    3.1213   -0.6241 C   0  0  0  0  0  0
   -0.8767    0.7709    0.2568 C   0  0  0  0  0  0
    2.9085    1.5968    0.7647 C   0  0  0  0  0  0
   -1.3604    1.9989   -0.2504 C   0  0  0  0  0  0
    1.0435   -0.8155   -0.2184 C   0  0  0  0  0  0
   -2.7515    2.1653   -0.3933 C   0  0  0  0  0  0
   -3.6072    1.1115   -0.0170 C   0  0  0  0  0  0
    1.6517   -1.8300    0.5516 C   0  0  0  0  0  0
    0.8343   -1.0259   -1.5979 C   0  0  0  0  0  0
   -3.0387   -0.0846    0.4980 C   0  0  0  0  0  0
    4.9679    2.8612    1.2255 C   0  0  0  0  0  0
    4.5425    2.0486   -1.0437 C   0  0  0  0  0  0
    2.0550   -3.0469   -0.0349 C   0  0  0  0  0  0
    1.2307   -2.2357   -2.1959 C   0  0  0  0  0  0
   -5.0045    1.2494   -0.1486 C   0  0  0  0  0  0
   -3.9085   -1.1297    0.8741 C   0  0  0  0  0  0
    1.8386   -3.2425   -1.4220 C   0  0  0  0  0  0
   -5.8532    0.1939    0.2322 C   0  0  0  0  0  0
   -5.3045   -0.9961    0.7439 C   0  0  0  0  0  0
    3.0472   -5.2157    0.2330 C   0  0  0  0  0  0
    1.7419    1.5441   -1.0634 H   0  0  0  0  0  0
    0.7333    0.3797    1.5170 H   0  0  0  0  0  0
    1.5596    3.8332   -0.1740 H   0  0  0  0  0  0
    0.6942    3.2298    1.2185 H   0  0  0  0  0  0
   -0.2170    3.0635   -1.6949 H   0  0  0  0  0  0
   -0.8971    4.0832   -0.4426 H   0  0  0  0  0  0
    2.7206    1.8335    1.8133 H   0  0  0  0  0  0
    3.3145    0.5843    0.7549 H   0  0  0  0  0  0
   -3.1548    3.0894   -0.7817 H   0  0  0  0  0  0
    1.8147   -1.6784    1.6087 H   0  0  0  0  0  0
    0.3669   -0.2605   -2.2003 H   0  0  0  0  0  0
    5.6772    3.5854    0.8231 H   0  0  0  0  0  0
    4.5163    3.3043    2.1139 H   0  0  0  0  0  0
    5.5224    1.9724    1.5299 H   0  0  0  0  0  0
    5.2653    2.7746   -1.4178 H   0  0  0  0  0  0
    5.0616    1.1005   -0.8967 H   0  0  0  0  0  0
    3.7949    1.9094   -1.8235 H   0  0  0  0  0  0
    1.0675   -2.3931   -3.2519 H   0  0  0  0  0  0
   -5.4299    2.1620   -0.5405 H   0  0  0  0  0  0
   -3.4982   -2.0481    1.2677 H   0  0  0  0  0  0
    2.1292   -4.1569   -1.9164 H   0  0  0  0  0  0
   -6.9239    0.2970    0.1323 H   0  0  0  0  0  0
   -5.9544   -1.8077    1.0369 H   0  0  0  0  0  0
    3.4851   -5.8390    1.0125 H   0  0  0  0  0  0
    2.1993   -5.7593   -0.1858 H   0  0  0  0  0  0
    3.8041   -5.0745   -0.5397 H   0  0  0  0  0  0
    3.9345    2.5240    0.2212 N   0  3  0  0  0  0
    3.4581    3.3899    0.0118 H   0  0  0  0  0  0
  1 18  1  0  0  0
  1 25  1  0  0  0
  2  7  2  0  0  0
  2 15  1  0  0  0
  3  4  1  0  0  0
  3  5  1  0  0  0
  3  8  1  0  0  0
  3 26  1  0  0  0
  4  7  1  0  0  0
  4 10  1  0  0  0
  4 27  1  0  0  0
  5  6  1  0  0  0
  5 28  1  0  0  0
  5 29  1  0  0  0
  6  9  1  0  0  0
  6 30  1  0  0  0
  6 31  1  0  0  0
  7  9  1  0  0  0
  8 32  1  0  0  0
  8 33  1  0  0  0
  8 52  1  0  0  0
  9 11  2  0  0  0
 10 13  2  0  0  0
 10 14  1  0  0  0
 11 12  1  0  0  0
 11 34  1  0  0  0
 12 15  1  0  0  0
 12 20  2  0  0  0
 13 18  1  0  0  0
 13 35  1  0  0  0
 14 19  2  0  0  0
 14 36  1  0  0  0
 15 21  2  0  0  0
 16 37  1  0  0  0
 16 38  1  0  0  0
 16 39  1  0  0  0
 16 52  1  0  0  0
 17 40  1  0  0  0
 17 41  1  0  0  0
 17 42  1  0  0  0
 17 52  1  0  0  0
 18 22  2  0  0  0
 19 22  1  0  0  0
 19 43  1  0  0  0
 20 23  1  0  0  0
 20 44  1  0  0  0
 21 24  1  0  0  0
 21 45  1  0  0  0
 22 46  1  0  0  0
 23 24  2  0  0  0
 23 47  1  0  0  0
 24 48  1  0  0  0
 25 49  1  0  0  0
 25 50  1  0  0  0
 25 51  1  0  0  0
 52 53  1  0  0  0
M  CHG  1  52   1
M  END
> <LID>
L019399

> <PC_CID>
9951953

> <Names>


> <CAS_Numbers>


$$$$
12988891
                    3D
 Structure written by MMmdl.
 56 58  0  0  1  0            999 V2000
    3.2594    2.2602    0.6147 O   0  0  0  0  0  0
   -1.3687   -0.3658    1.1067 N   0  0  0  0  0  0
    3.1199    2.0605   -1.6506 N   0  0  0  0  0  0
   -2.1309   -1.3102    0.2625 C   0  0  0  0  0  0
   -1.5862   -1.4130   -1.1886 C   0  0  0  0  0  0
   -2.1629   -2.7431    0.8584 C   0  0  0  0  0  0
   -2.3849   -2.4184   -2.0340 C   0  0  0  0  0  0
   -2.9494   -3.7202   -0.0305 C   0  0  0  0  0  0
   -0.8517    0.7393    0.5257 C   0  0  0  0  0  0
   -1.5547   -0.4066    2.4461 C   0  0  0  0  0  0
    0.5449    0.8669    0.3700 C   0  0  0  0  0  0
   -1.7010    1.7660    0.0583 C   0  0  0  0  0  0
   -0.4609   -0.6602    3.3025 C   0  0  0  0  0  0
   -2.8373   -0.2011    3.0039 C   0  0  0  0  0  0
    1.0935    2.0047   -0.2577 C   0  0  0  0  0  0
   -1.1564    2.9131   -0.5491 C   0  0  0  0  0  0
    0.2377    3.0354   -0.7021 C   0  0  0  0  0  0
   -0.6463   -0.7096    4.6978 C   0  0  0  0  0  0
   -3.0219   -0.2505    4.3993 C   0  0  0  0  0  0
    2.5816    2.1245   -0.4045 C   0  0  0  0  0  0
   -1.9267   -0.5051    5.2465 C   0  0  0  0  0  0
    4.5723    2.1894   -1.8408 C   0  0  0  0  0  0
    2.3733    1.7405   -2.8792 C   0  0  0  0  0  0
    5.3053    0.8661   -1.5706 C   0  0  0  0  0  0
    2.0939    2.9855   -3.7362 C   0  0  0  0  0  0
   -3.1555   -0.9392    0.2100 H   0  0  0  0  0  0
   -0.5354   -1.7071   -1.1691 H   0  0  0  0  0  0
   -1.6266   -0.4472   -1.6927 H   0  0  0  0  0  0
   -2.6203   -2.7486    1.8478 H   0  0  0  0  0  0
   -1.1435   -3.1092    0.9906 H   0  0  0  0  0  0
   -3.4123   -2.0742   -2.1618 H   0  0  0  0  0  0
   -1.9511   -2.5023   -3.0307 H   0  0  0  0  0  0
   -2.9146   -4.7254    0.3906 H   0  0  0  0  0  0
   -4.0000   -3.4299   -0.0754 H   0  0  0  0  0  0
    1.1979    0.0812    0.7224 H   0  0  0  0  0  0
   -2.7719    1.6799    0.1722 H   0  0  0  0  0  0
    0.5252   -0.8219    2.8925 H   0  0  0  0  0  0
   -3.6845   -0.0009    2.3644 H   0  0  0  0  0  0
   -1.8083    3.7024   -0.8933 H   0  0  0  0  0  0
    0.6452    3.9290   -1.1505 H   0  0  0  0  0  0
    0.1944   -0.9047    5.3471 H   0  0  0  0  0  0
   -4.0040   -0.0916    4.8197 H   0  0  0  0  0  0
   -2.0683   -0.5426    6.3167 H   0  0  0  0  0  0
    4.7918    2.5146   -2.8581 H   0  0  0  0  0  0
    4.9718    2.9746   -1.1964 H   0  0  0  0  0  0
    2.9560    1.0314   -3.4687 H   0  0  0  0  0  0
    1.4392    1.2191   -2.6691 H   0  0  0  0  0  0
    6.3768    0.9782   -1.7370 H   0  0  0  0  0  0
    5.1656    0.5335   -0.5418 H   0  0  0  0  0  0
    4.9495    0.0740   -2.2300 H   0  0  0  0  0  0
    1.5494    2.7127   -4.6403 H   0  0  0  0  0  0
    1.4942    3.7216   -3.2044 H   0  0  0  0  0  0
    3.0166    3.4750   -4.0475 H   0  0  0  0  0  0
   -2.3910   -3.7508   -1.3972 N   0  3  0  0  0  0
   -1.4411   -4.0913   -1.3507 H   0  0  0  0  0  0
   -2.9372   -4.3850   -1.9631 H   0  0  0  0  0  0
  1 20  2  0  0  0
  2  4  1  0  0  0
  2  9  1  0  0  0
  2 10  1  0  0  0
  3 20  1  0  0  0
  3 22  1  0  0  0
  3 23  1  0  0  0
  4  5  1  0  0  0
  4  6  1  0  0  0
  4 26  1  0  0  0
  5  7  1  0  0  0
  5 27  1  0  0  0
  5 28  1  0  0  0
  6  8  1  0  0  0
  6 29  1  0  0  0
  6 30  1  0  0  0
  7 31  1  0  0  0
  7 32  1  0  0  0
  7 54  1  0  0  0
  8 33  1  0  0  0
  8 34  1  0  0  0
  8 54  1  0  0  0
  9 11  1  0  0  0
  9 12  2  0  0  0
 10 13  2  0  0  0
 10 14  1  0  0  0
 11 15  2  0  0  0
 11 35  1  0  0  0
 12 16  1  0  0  0
 12 36  1  0  0  0
 13 18  1  0  0  0
 13 37  1  0  0  0
 14 19  2  0  0  0
 14 38  1  0  0  0
 15 17  1  0  0  0
 15 20  1  0  0  0
 16 17  2  0  0  0
 16 39  1  0  0  0
 17 40  1  0  0  0
 18 21  2  0  0  0
 18 41  1  0  0  0
 19 21  1  0  0  0
 19 42  1  0  0  0
 21 43  1  0  0  0
 22 24  1  0  0  0
 22 44  1  0  0  0
 22 45  1  0  0  0
 23 25  1  0  0  0
 23 46  1  0  0  0
 23 47  1  0  0  0
 24 48  1  0  0  0
 24 49  1  0  0  0
 24 50  1  0  0  0
 25 51  1  0  0  0
 25 52  1  0  0  0
 25 53  1  0  0  0
 54 55  1  0  0  0
 54 56  1  0  0  0
M  CHG  1  54   1
M  END
> <LID>
L018214

> <PC_CID>
12988891

> <Names>


> <CAS_Numbers>


$$$$
12988890
                    3D
 Structure written by MMmdl.
 69 72  0  0  1  0            999 V2000
    1.5079   -2.8077    2.7982 O   0  0  0  0  0  0
    0.7619    0.3063   -1.4429 N   0  0  0  0  0  0
    2.3375   -4.4811    1.4922 N   0  0  0  0  0  0
    0.0840    1.4864   -0.8807 C   0  0  0  0  0  0
    0.3117    1.6549    0.6347 C   0  0  0  0  0  0
   -1.4282    1.5128   -1.1724 C   0  0  0  0  0  0
   -0.3660    2.9350    1.1499 C   0  0  0  0  0  0
   -2.0711    2.7958   -0.6203 C   0  0  0  0  0  0
   -2.5153    4.0999    1.4480 C   0  0  0  0  0  0
    0.4245   -0.9212   -0.9865 C   0  0  0  0  0  0
    1.7972    0.5149   -2.2908 C   0  0  0  0  0  0
   -4.0232    3.9202    1.4699 C   0  0  0  0  0  0
    1.1492   -1.5000    0.0771 C   0  0  0  0  0  0
   -0.6399   -1.6400   -1.5724 C   0  0  0  0  0  0
    2.8640    1.3769   -1.9444 C   0  0  0  0  0  0
    1.8242   -0.1389   -3.5436 C   0  0  0  0  0  0
    0.8214   -2.7868    0.5523 C   0  0  0  0  0  0
   -4.8365    4.6000    0.5378 C   0  0  0  0  0  0
   -4.6186    3.0722    2.4278 C   0  0  0  0  0  0
   -0.9858   -2.9156   -1.0880 C   0  0  0  0  0  0
   -0.2627   -3.4852   -0.0230 C   0  0  0  0  0  0
    3.9352    1.5816   -2.8355 C   0  0  0  0  0  0
    2.8954    0.0660   -4.4346 C   0  0  0  0  0  0
    3.9514    0.9267   -4.0812 C   0  0  0  0  0  0
   -6.2342    4.4276    0.5604 C   0  0  0  0  0  0
   -6.0165    2.9008    2.4496 C   0  0  0  0  0  0
    1.5877   -3.3680    1.7042 C   0  0  0  0  0  0
   -6.8243    3.5778    1.5157 C   0  0  0  0  0  0
    3.0491   -5.1269    2.6048 C   0  0  0  0  0  0
    2.5944   -5.0859    0.1747 C   0  0  0  0  0  0
    2.1531   -6.1440    3.3251 C   0  0  0  0  0  0
    3.6856   -4.3275   -0.5958 C   0  0  0  0  0  0
    0.4989    2.3707   -1.3676 H   0  0  0  0  0  0
   -0.0886    0.7981    1.1782 H   0  0  0  0  0  0
    1.3785    1.6911    0.8564 H   0  0  0  0  0  0
   -1.6029    1.4470   -2.2469 H   0  0  0  0  0  0
   -1.9213    0.6512   -0.7213 H   0  0  0  0  0  0
   -0.2193    3.0067    2.2284 H   0  0  0  0  0  0
    0.1050    3.8142    0.7071 H   0  0  0  0  0  0
   -1.6812    3.6686   -1.1464 H   0  0  0  0  0  0
   -3.1424    2.7610   -0.8179 H   0  0  0  0  0  0
   -2.1840    4.2299    2.4794 H   0  0  0  0  0  0
   -2.2477    5.0163    0.9195 H   0  0  0  0  0  0
    1.9672   -0.9544    0.5262 H   0  0  0  0  0  0
   -1.1972   -1.2125   -2.3931 H   0  0  0  0  0  0
    2.8734    1.8822   -0.9903 H   0  0  0  0  0  0
    1.0202   -0.8009   -3.8303 H   0  0  0  0  0  0
   -4.3925    5.2535   -0.1990 H   0  0  0  0  0  0
   -4.0064    2.5498    3.1485 H   0  0  0  0  0  0
   -1.8076   -3.4570   -1.5330 H   0  0  0  0  0  0
   -0.5411   -4.4613    0.3480 H   0  0  0  0  0  0
    4.7463    2.2403   -2.5619 H   0  0  0  0  0  0
    2.9063   -0.4378   -5.3900 H   0  0  0  0  0  0
    4.7733    1.0835   -4.7644 H   0  0  0  0  0  0
   -6.8542    4.9478   -0.1550 H   0  0  0  0  0  0
   -6.4696    2.2504    3.1834 H   0  0  0  0  0  0
   -7.8963    3.4463    1.5330 H   0  0  0  0  0  0
    3.9467   -5.6280    2.2394 H   0  0  0  0  0  0
    3.4142   -4.3856    3.3177 H   0  0  0  0  0  0
    2.9063   -6.1238    0.2998 H   0  0  0  0  0  0
    1.6895   -5.1499   -0.4262 H   0  0  0  0  0  0
    2.6944   -6.6294    4.1374 H   0  0  0  0  0  0
    1.2734   -5.6638    3.7545 H   0  0  0  0  0  0
    1.8112   -6.9223    2.6423 H   0  0  0  0  0  0
    3.8918   -4.8127   -1.5499 H   0  0  0  0  0  0
    3.3888   -3.3002   -0.8076 H   0  0  0  0  0  0
    4.6181   -4.2972   -0.0314 H   0  0  0  0  0  0
   -1.8191    2.9386    0.8394 N   0  3  0  0  0  0
   -2.2054    2.1166    1.2816 H   0  0  0  0  0  0
  1 27  2  0  0  0
  2  4  1  0  0  0
  2 10  1  0  0  0
  2 11  1  0  0  0
  3 27  1  0  0  0
  3 29  1  0  0  0
  3 30  1  0  0  0
  4  5  1  0  0  0
  4  6  1  0  0  0
  4 33  1  0  0  0
  5  7  1  0  0  0
  5 34  1  0  0  0
  5 35  1  0  0  0
  6  8  1  0  0  0
  6 36  1  0  0  0
  6 37  1  0  0  0
  7 38  1  0  0  0
  7 39  1  0  0  0
  7 68  1  0  0  0
  8 40  1  0  0  0
  8 41  1  0  0  0
  8 68  1  0  0  0
  9 12  1  0  0  0
  9 42  1  0  0  0
  9 43  1  0  0  0
  9 68  1  0  0  0
 10 13  1  0  0  0
 10 14  2  0  0  0
 11 15  2  0  0  0
 11 16  1  0  0  0
 12 18  2  0  0  0
 12 19  1  0  0  0
 13 17  2  0  0  0
 13 44  1  0  0  0
 14 20  1  0  0  0
 14 45  1  0  0  0
 15 22  1  0  0  0
 15 46  1  0  0  0
 16 23  2  0  0  0
 16 47  1  0  0  0
 17 21  1  0  0  0
 17 27  1  0  0  0
 18 25  1  0  0  0
 18 48  1  0  0  0
 19 26  2  0  0  0
 19 49  1  0  0  0
 20 21  2  0  0  0
 20 50  1  0  0  0
 21 51  1  0  0  0
 22 24  2  0  0  0
 22 52  1  0  0  0
 23 24  1  0  0  0
 23 53  1  0  0  0
 24 54  1  0  0  0
 25 28  2  0  0  0
 25 55  1  0  0  0
 26 28  1  0  0  0
 26 56  1  0  0  0
 28 57  1  0  0  0
 29 31  1  0  0  0
 29 58  1  0  0  0
 29 59  1  0  0  0
 30 32  1  0  0  0
 30 60  1  0  0  0
 30 61  1  0  0  0
 31 62  1  0  0  0
 31 63  1  0  0  0
 31 64  1  0  0  0
 32 65  1  0  0  0
 32 66  1  0  0  0
 32 67  1  0  0  0
 68 69  1  0  0  0
M  CHG  1  68   1
M  END
> <LID>
L018212

> <PC_CID>
12988890

> <Names>


> <CAS_Numbers>


$$$$
12988893
                    3D
 Structure written by MMmdl.
 69 72  0  0  1  0            999 V2000
    4.3927   -4.8455   -0.3933 O   0  0  0  0  0  0
    6.8303    1.0060   -0.5550 N   0  0  0  0  0  0
    6.5532   -5.4579   -0.7772 N   0  0  0  0  0  0
    6.0001    1.9218    0.2447 C   0  0  2  0  0  0
    6.1147    1.6691    1.7599 C   0  0  0  0  0  0
    4.5174    1.9229   -0.1896 C   0  0  0  0  0  0
    5.2780    2.7025    2.5242 C   0  0  0  0  0  0
    3.8181    2.6933    2.0412 C   0  0  0  0  0  0
    2.3310    3.0626    0.1118 C   0  0  0  0  0  0
    6.5380   -0.3146   -0.5530 C   0  0  0  0  0  0
    7.7692    1.5508   -1.3639 C   0  0  0  0  0  0
    2.2426    3.6543   -1.2842 C   0  0  0  0  0  0
    5.6983   -0.8534   -1.5515 C   0  0  0  0  0  0
    7.0703   -1.1682    0.4371 C   0  0  0  0  0  0
    9.1091    1.1087   -1.2848 C   0  0  0  0  0  0
    7.4330    2.5604   -2.2960 C   0  0  0  0  0  0
    1.9781    2.8246   -2.3951 C   0  0  0  0  0  0
    2.4270    5.0400   -1.4763 C   0  0  0  0  0  0
    5.3899   -2.2271   -1.5567 C   0  0  0  0  0  0
    6.7626   -2.5420    0.4320 C   0  0  0  0  0  0
    5.9344   -3.0826   -0.5760 C   0  0  0  0  0  0
   10.0963    1.6666   -2.1201 C   0  0  0  0  0  0
    8.4204    3.1178   -3.1314 C   0  0  0  0  0  0
    1.9054    3.3764   -3.6888 C   0  0  0  0  0  0
    2.3535    5.5908   -2.7705 C   0  0  0  0  0  0
    9.7525    2.6717   -3.0436 C   0  0  0  0  0  0
    5.5717   -4.5398   -0.5759 C   0  0  0  0  0  0
    2.0936    4.7592   -3.8768 C   0  0  0  0  0  0
    6.2567   -6.8963   -0.7089 C   0  0  0  0  0  0
    7.9373   -5.1431   -1.1685 C   0  0  0  0  0  0
    6.3716   -7.4223    0.7286 C   0  0  0  0  0  0
    8.0487   -4.8470   -2.6713 C   0  0  0  0  0  0
    6.3772    2.9332    0.0827 H   0  0  0  0  0  0
    5.7593    0.6698    2.0127 H   0  0  0  0  0  0
    7.1569    1.7250    2.0765 H   0  0  0  0  0  0
    4.0687    0.9394   -0.0419 H   0  0  0  0  0  0
    4.4614    2.1394   -1.2559 H   0  0  0  0  0  0
    5.3176    2.4945    3.5939 H   0  0  0  0  0  0
    5.7057    3.6967    2.3870 H   0  0  0  0  0  0
    3.3472    1.7394    2.2849 H   0  0  0  0  0  0
    3.2608    3.4664    2.5719 H   0  0  0  0  0  0
    1.8312    2.0932    0.1472 H   0  0  0  0  0  0
    1.7798    3.7201    0.7858 H   0  0  0  0  0  0
    5.2844   -0.2124   -2.3164 H   0  0  0  0  0  0
    7.7155   -0.7707    1.2070 H   0  0  0  0  0  0
    9.3884    0.3399   -0.5792 H   0  0  0  0  0  0
    6.4153    2.9106   -2.3831 H   0  0  0  0  0  0
    1.8344    1.7623   -2.2605 H   0  0  0  0  0  0
    2.6268    5.6851   -0.6331 H   0  0  0  0  0  0
    4.7392   -2.6235   -2.3230 H   0  0  0  0  0  0
    7.1671   -3.1797    1.2049 H   0  0  0  0  0  0
   11.1179    1.3230   -2.0517 H   0  0  0  0  0  0
    8.1550    3.8871   -3.8414 H   0  0  0  0  0  0
    1.7050    2.7389   -4.5375 H   0  0  0  0  0  0
    2.4960    6.6518   -2.9150 H   0  0  0  0  0  0
   10.5096    3.0991   -3.6845 H   0  0  0  0  0  0
    2.0372    5.1821   -4.8692 H   0  0  0  0  0  0
    5.2610   -7.1092   -1.1020 H   0  0  0  0  0  0
    6.9362   -7.4539   -1.3550 H   0  0  0  0  0  0
    8.3447   -4.3136   -0.5944 H   0  0  0  0  0  0
    8.5897   -5.9826   -0.9242 H   0  0  0  0  0  0
    6.1665   -8.4922    0.7667 H   0  0  0  0  0  0
    7.3731   -7.2617    1.1290 H   0  0  0  0  0  0
    5.6617   -6.9257    1.3908 H   0  0  0  0  0  0
    9.0848   -4.6558   -2.9510 H   0  0  0  0  0  0
    7.6951   -5.6894   -3.2666 H   0  0  0  0  0  0
    7.4655   -3.9700   -2.9522 H   0  0  0  0  0  0
    3.7344    2.9293    0.5766 N   0  3  2  0  0  0
    4.1718    3.8240    0.4083 H   0  0  0  0  0  0
  1 27  2  0  0  0
  2  4  1  0  0  0
  2 10  1  0  0  0
  2 11  1  0  0  0
  3 27  1  0  0  0
  3 29  1  0  0  0
  3 30  1  0  0  0
  4  5  1  0  0  0
  4  6  1  0  0  0
  4 33  1  0  0  0
  5  7  1  0  0  0
  5 34  1  0  0  0
  5 35  1  0  0  0
  6 36  1  0  0  0
  6 37  1  0  0  0
  6 68  1  0  0  0
  7  8  1  0  0  0
  7 38  1  0  0  0
  7 39  1  0  0  0
  8 40  1  0  0  0
  8 41  1  0  0  0
  8 68  1  0  0  0
  9 12  1  0  0  0
  9 42  1  0  0  0
  9 43  1  0  0  0
  9 68  1  0  0  0
 10 13  2  0  0  0
 10 14  1  0  0  0
 11 15  2  0  0  0
 11 16  1  0  0  0
 12 17  2  0  0  0
 12 18  1  0  0  0
 13 19  1  0  0  0
 13 44  1  0  0  0
 14 20  2  0  0  0
 14 45  1  0  0  0
 15 22  1  0  0  0
 15 46  1  0  0  0
 16 23  2  0  0  0
 16 47  1  0  0  0
 17 24  1  0  0  0
 17 48  1  0  0  0
 18 25  2  0  0  0
 18 49  1  0  0  0
 19 21  2  0  0  0
 19 50  1  0  0  0
 20 21  1  0  0  0
 20 51  1  0  0  0
 21 27  1  0  0  0
 22 26  2  0  0  0
 22 52  1  0  0  0
 23 26  1  0  0  0
 23 53  1  0  0  0
 24 28  2  0  0  0
 24 54  1  0  0  0
 25 28  1  0  0  0
 25 55  1  0  0  0
 26 56  1  0  0  0
 28 57  1  0  0  0
 29 31  1  0  0  0
 29 58  1  0  0  0
 29 59  1  0  0  0
 30 32  1  0  0  0
 30 60  1  0  0  0
 30 61  1  0  0  0
 31 62  1  0  0  0
 31 63  1  0  0  0
 31 64  1  0  0  0
 32 65  1  0  0  0
 32 66  1  0  0  0
 32 67  1  0  0  0
 68 69  1  0  0  0
M  CHG  1  68   1
M  END
> <LID>
L018215

> <PC_CID>
12988893

> <Names>


> <CAS_Numbers>


$$$$
12988894
                    3D
 Structure written by MMmdl.
 56 58  0  0  1  0            999 V2000
    3.6467    0.3669   -2.8212 O   0  0  0  0  0  0
   -1.7020   -0.5831    0.4632 N   0  0  0  0  0  0
    4.5395    0.5925   -0.7373 N   0  0  0  0  0  0
   -2.6619   -1.3577   -0.3403 C   0  0  2  0  0  0
   -2.2440   -2.8323   -0.5183 C   0  0  0  0  0  0
   -2.9586   -0.7136   -1.7142 C   0  0  0  0  0  0
   -3.3154   -3.5955   -1.3114 C   0  0  0  0  0  0
   -3.5982   -2.9038   -2.6557 C   0  0  0  0  0  0
   -0.4589   -0.3672   -0.0244 C   0  0  0  0  0  0
   -2.1512   -0.0207    1.6095 C   0  0  0  0  0  0
   -0.1781    0.8143   -0.7438 C   0  0  0  0  0  0
    0.5702   -1.3106    0.1838 C   0  0  0  0  0  0
   -3.2850    0.8246    1.6103 C   0  0  0  0  0  0
   -1.4834   -0.2751    2.8286 C   0  0  0  0  0  0
    2.1442    0.1090   -1.0343 C   0  0  0  0  0  0
    1.1136    1.0467   -1.2537 C   0  0  0  0  0  0
    1.8621   -1.0782   -0.3253 C   0  0  0  0  0  0
   -3.7426    1.4032    2.8101 C   0  0  0  0  0  0
   -1.9414    0.3034    4.0282 C   0  0  0  0  0  0
    3.5123    0.3625   -1.5970 C   0  0  0  0  0  0
   -3.0715    1.1425    4.0196 C   0  0  0  0  0  0
    5.8974    0.8312   -1.2490 C   0  0  0  0  0  0
    4.4035    0.7562    0.7201 C   0  0  0  0  0  0
    6.0899    2.2853   -1.7073 C   0  0  0  0  0  0
    4.8646   -0.4880    1.4962 C   0  0  0  0  0  0
   -3.6059   -1.3810    0.2071 H   0  0  0  0  0  0
   -2.0944   -3.3036    0.4539 H   0  0  0  0  0  0
   -1.2962   -2.9016   -1.0526 H   0  0  0  0  0  0
   -3.3172    0.3084   -1.5896 H   0  0  0  0  0  0
   -2.0568   -0.6637   -2.3260 H   0  0  0  0  0  0
   -4.2340   -3.6541   -0.7259 H   0  0  0  0  0  0
   -2.9916   -4.6228   -1.4814 H   0  0  0  0  0  0
   -2.7163   -2.9460   -3.2967 H   0  0  0  0  0  0
   -4.4010   -3.4182   -3.1845 H   0  0  0  0  0  0
   -0.9549    1.5467   -0.9088 H   0  0  0  0  0  0
    0.3708   -2.2197    0.7322 H   0  0  0  0  0  0
   -3.8078    1.0409    0.6906 H   0  0  0  0  0  0
   -0.6164   -0.9192    2.8509 H   0  0  0  0  0  0
    1.3123    1.9533   -1.8074 H   0  0  0  0  0  0
    2.6300   -1.8224   -0.1782 H   0  0  0  0  0  0
   -4.6083    2.0490    2.8020 H   0  0  0  0  0  0
   -1.4252    0.1026    4.9554 H   0  0  0  0  0  0
   -3.4224    1.5866    4.9396 H   0  0  0  0  0  0
    6.6359    0.6019   -0.4805 H   0  0  0  0  0  0
    6.1188    0.1491   -2.0719 H   0  0  0  0  0  0
    5.0057    1.6098    1.0342 H   0  0  0  0  0  0
    3.3861    1.0173    1.0119 H   0  0  0  0  0  0
    7.1078    2.4456   -2.0630 H   0  0  0  0  0  0
    5.4128    2.5417   -2.5224 H   0  0  0  0  0  0
    5.9111    2.9853   -0.8907 H   0  0  0  0  0  0
    4.7556   -0.3307    2.5693 H   0  0  0  0  0  0
    4.2842   -1.3709    1.2360 H   0  0  0  0  0  0
    5.9133   -0.7156    1.3060 H   0  0  0  0  0  0
   -3.9824   -1.4902   -2.4475 N   0  3  0  0  0  0
   -4.1408   -1.0572   -3.3463 H   0  0  0  0  0  0
   -4.8428   -1.4661   -1.9189 H   0  0  0  0  0  0
  1 20  2  0  0  0
  2  4  1  0  0  0
  2  9  1  0  0  0
  2 10  1  0  0  0
  3 20  1  0  0  0
  3 22  1  0  0  0
  3 23  1  0  0  0
  4  5  1  0  0  0
  4  6  1  0  0  0
  4 26  1  0  0  0
  5  7  1  0  0  0
  5 27  1  0  0  0
  5 28  1  0  0  0
  6 29  1  0  0  0
  6 30  1  0  0  0
  6 54  1  0  0  0
  7  8  1  0  0  0
  7 31  1  0  0  0
  7 32  1  0  0  0
  8 33  1  0  0  0
  8 34  1  0  0  0
  8 54  1  0  0  0
  9 11  2  0  0  0
  9 12  1  0  0  0
 10 13  2  0  0  0
 10 14  1  0  0  0
 11 16  1  0  0  0
 11 35  1  0  0  0
 12 17  2  0  0  0
 12 36  1  0  0  0
 13 18  1  0  0  0
 13 37  1  0  0  0
 14 19  2  0  0  0
 14 38  1  0  0  0
 15 16  2  0  0  0
 15 17  1  0  0  0
 15 20  1  0  0  0
 16 39  1  0  0  0
 17 40  1  0  0  0
 18 21  2  0  0  0
 18 41  1  0  0  0
 19 21  1  0  0  0
 19 42  1  0  0  0
 21 43  1  0  0  0
 22 24  1  0  0  0
 22 44  1  0  0  0
 22 45  1  0  0  0
 23 25  1  0  0  0
 23 46  1  0  0  0
 23 47  1  0  0  0
 24 48  1  0  0  0
 24 49  1  0  0  0
 24 50  1  0  0  0
 25 51  1  0  0  0
 25 52  1  0  0  0
 25 53  1  0  0  0
 54 55  1  0  0  0
 54 56  1  0  0  0
M  CHG  1  54   1
M  END
> <LID>
L018211

> <PC_CID>
12988894

> <Names>


> <CAS_Numbers>


$$$$
12988897
                    3D
 Structure written by MMmdl.
 56 58  0  0  1  0            999 V2000
    1.1340    1.1899    2.4935 O   0  0  0  0  0  0
   -1.0723    0.6026   -2.3071 N   0  0  0  0  0  0
    0.2100   -0.7644    3.2150 N   0  0  0  0  0  0
   -0.7172    1.8555   -2.9943 C   0  0  2  0  0  0
    0.5178    2.5522   -2.3816 C   0  0  0  0  0  0
   -1.8991    2.8464   -3.0865 C   0  0  0  0  0  0
    0.8649    3.8170   -3.1809 C   0  0  0  0  0  0
   -0.3489    4.7567   -3.2766 C   0  0  0  0  0  0
   -1.4259    0.6518   -1.0026 C   0  0  0  0  0  0
   -0.8888   -0.5617   -2.9745 C   0  0  0  0  0  0
   -0.4486    0.4681   -0.0012 C   0  0  0  0  0  0
   -2.7693    0.8714   -0.6284 C   0  0  0  0  0  0
   -1.9394   -1.5046   -3.0474 C   0  0  0  0  0  0
    0.3438   -0.8597   -3.6017 C   0  0  0  0  0  0
   -0.8048    0.4977    1.3631 C   0  0  0  0  0  0
   -3.1271    0.9241    0.7320 C   0  0  0  0  0  0
   -2.1467    0.7458    1.7262 C   0  0  0  0  0  0
    0.2574    0.3289    2.4095 C   0  0  0  0  0  0
   -1.7632   -2.7206   -3.7357 C   0  0  0  0  0  0
    0.5198   -2.0759   -4.2898 C   0  0  0  0  0  0
   -0.5336   -3.0068   -4.3577 C   0  0  0  0  0  0
    1.1872   -0.9377    4.2995 C   0  0  0  0  0  0
   -0.7162   -1.8963    3.0457 C   0  0  0  0  0  0
    0.7186   -0.2487    5.5886 C   0  0  0  0  0  0
   -0.2452   -2.8560    1.9427 C   0  0  0  0  0  0
   -0.4601    1.6038   -4.0247 H   0  0  0  0  0  0
    1.3735    1.8768   -2.3684 H   0  0  0  0  0  0
    0.3242    2.8301   -1.3449 H   0  0  0  0  0  0
   -2.7528    2.3756   -3.5752 H   0  0  0  0  0  0
   -2.2278    3.1612   -2.0955 H   0  0  0  0  0  0
    1.1958    3.5387   -4.1824 H   0  0  0  0  0  0
    1.7019    4.3356   -2.7122 H   0  0  0  0  0  0
   -0.6126    5.1371   -2.2887 H   0  0  0  0  0  0
   -0.1106    5.6208   -3.8973 H   0  0  0  0  0  0
    0.5806    0.2961   -0.2834 H   0  0  0  0  0  0
   -3.5300    1.0029   -1.3840 H   0  0  0  0  0  0
   -2.8899   -1.2996   -2.5770 H   0  0  0  0  0  0
    1.1667   -0.1623   -3.5544 H   0  0  0  0  0  0
   -4.1545    1.1021    1.0133 H   0  0  0  0  0  0
   -2.4291    0.7963    2.7681 H   0  0  0  0  0  0
   -2.5725   -3.4341   -3.7861 H   0  0  0  0  0  0
    1.4651   -2.2954   -4.7641 H   0  0  0  0  0  0
   -0.3981   -3.9397   -4.8850 H   0  0  0  0  0  0
    1.3522   -1.9985    4.4938 H   0  0  0  0  0  0
    2.1658   -0.5518    4.0087 H   0  0  0  0  0  0
   -0.7991   -2.4484    3.9830 H   0  0  0  0  0  0
   -1.7317   -1.5631    2.8417 H   0  0  0  0  0  0
   -0.2381   -0.6493    5.9252 H   0  0  0  0  0  0
    0.6005    0.8257    5.4440 H   0  0  0  0  0  0
    1.4413   -0.3967    6.3911 H   0  0  0  0  0  0
   -0.9196   -3.7083    1.8594 H   0  0  0  0  0  0
   -0.2139   -2.3662    0.9693 H   0  0  0  0  0  0
    0.7520   -3.2423    2.1554 H   0  0  0  0  0  0
   -1.5140    4.0510   -3.8544 N   0  3  0  0  0  0
   -2.2998    4.6850   -3.8855 H   0  0  0  0  0  0
   -1.2850    3.7705   -4.7973 H   0  0  0  0  0  0
  1 18  2  0  0  0
  2  4  1  0  0  0
  2  9  1  0  0  0
  2 10  1  0  0  0
  3 18  1  0  0  0
  3 22  1  0  0  0
  3 23  1  0  0  0
  4  5  1  0  0  0
  4  6  1  0  0  0
  4 26  1  0  0  0
  5  7  1  0  0  0
  5 27  1  0  0  0
  5 28  1  0  0  0
  6 29  1  0  0  0
  6 30  1  0  0  0
  6 54  1  0  0  0
  7  8  1  0  0  0
  7 31  1  0  0  0
  7 32  1  0  0  0
  8 33  1  0  0  0
  8 34  1  0  0  0
  8 54  1  0  0  0
  9 11  1  0  0  0
  9 12  2  0  0  0
 10 13  2  0  0  0
 10 14  1  0  0  0
 11 15  2  0  0  0
 11 35  1  0  0  0
 12 16  1  0  0  0
 12 36  1  0  0  0
 13 19  1  0  0  0
 13 37  1  0  0  0
 14 20  2  0  0  0
 14 38  1  0  0  0
 15 17  1  0  0  0
 15 18  1  0  0  0
 16 17  2  0  0  0
 16 39  1  0  0  0
 17 40  1  0  0  0
 19 21  2  0  0  0
 19 41  1  0  0  0
 20 21  1  0  0  0
 20 42  1  0  0  0
 21 43  1  0  0  0
 22 24  1  0  0  0
 22 44  1  0  0  0
 22 45  1  0  0  0
 23 25  1  0  0  0
 23 46  1  0  0  0
 23 47  1  0  0  0
 24 48  1  0  0  0
 24 49  1  0  0  0
 24 50  1  0  0  0
 25 51  1  0  0  0
 25 52  1  0  0  0
 25 53  1  0  0  0
 54 55  1  0  0  0
 54 56  1  0  0  0
M  CHG  1  54   1
M  END
> <LID>
L018217

> <PC_CID>
12988897

> <Names>


> <CAS_Numbers>


$$$$
12988896
                    3D
 Structure written by MMmdl.
 69 72  0  0  1  0            999 V2000
    1.6644   -4.2927    1.2758 O   0  0  0  0  0  0
   -1.2286   -0.6874   -1.3792 N   0  0  0  0  0  0
    3.5543   -3.0682    0.9275 N   0  0  0  0  0  0
   -1.0287    0.7693   -1.3078 C   0  0  2  0  0  0
   -0.5828    1.3758   -2.6512 C   0  0  0  0  0  0
   -0.0584    1.1891   -0.1805 C   0  0  0  0  0  0
   -0.4558    2.8980   -2.5177 C   0  0  0  0  0  0
    0.4962    3.2726   -1.3698 C   0  0  0  0  0  0
    0.8796    3.0836    1.0778 C   0  0  0  0  0  0
   -0.1537   -1.4894   -1.5526 C   0  0  0  0  0  0
   -2.4732   -1.1629   -1.1438 C   0  0  0  0  0  0
    0.7009    4.5538    1.4136 C   0  0  0  0  0  0
    0.4909   -2.0521   -0.4299 C   0  0  0  0  0  0
    0.3313   -1.7766   -2.8467 C   0  0  0  0  0  0
   -3.1036   -1.9922   -2.0983 C   0  0  0  0  0  0
   -3.1591   -0.8434    0.0508 C   0  0  0  0  0  0
    1.6899    5.4937    1.0519 C   0  0  0  0  0  0
   -0.4574    4.9862    2.0938 C   0  0  0  0  0  0
    1.6310   -2.8666   -0.5910 C   0  0  0  0  0  0
    1.4540   -2.6089   -3.0149 C   0  0  0  0  0  0
    2.1013   -3.1554   -1.8907 C   0  0  0  0  0  0
   -4.3992   -2.4924   -1.8642 C   0  0  0  0  0  0
   -4.4545   -1.3442    0.2847 C   0  0  0  0  0  0
    1.5181    6.8565    1.3630 C   0  0  0  0  0  0
   -0.6280    6.3493    2.4047 C   0  0  0  0  0  0
   -5.0753   -2.1683   -0.6729 C   0  0  0  0  0  0
    2.2928   -3.4648    0.6156 C   0  0  0  0  0  0
    0.3592    7.2847    2.0388 C   0  0  0  0  0  0
    4.2778   -3.6855    2.0485 C   0  0  0  0  0  0
    4.2717   -1.9579    0.2796 C   0  0  0  0  0  0
    5.0197   -4.9535    1.6035 C   0  0  0  0  0  0
    3.8408   -0.5981    0.8493 C   0  0  0  0  0  0
   -1.9935    1.2252   -1.0790 H   0  0  0  0  0  0
    0.3798    0.9669   -2.9592 H   0  0  0  0  0  0
   -1.2986    1.1281   -3.4360 H   0  0  0  0  0  0
   -0.4125    0.7892    0.7706 H   0  0  0  0  0  0
    0.9354    0.7736   -0.3522 H   0  0  0  0  0  0
   -0.0947    3.3238   -3.4543 H   0  0  0  0  0  0
   -1.4390    3.3354   -2.3387 H   0  0  0  0  0  0
    1.5104    2.9420   -1.5999 H   0  0  0  0  0  0
    0.5298    4.3587   -1.2851 H   0  0  0  0  0  0
    0.5941    2.5073    1.9592 H   0  0  0  0  0  0
    1.9311    2.8597    0.8900 H   0  0  0  0  0  0
    0.1152   -1.8460    0.5625 H   0  0  0  0  0  0
   -0.1598   -1.3631   -3.7156 H   0  0  0  0  0  0
   -2.5969   -2.2470   -3.0178 H   0  0  0  0  0  0
   -2.6938   -0.2182    0.7984 H   0  0  0  0  0  0
    2.5819    5.1745    0.5328 H   0  0  0  0  0  0
   -1.2191    4.2753    2.3791 H   0  0  0  0  0  0
    1.8175   -2.8302   -4.0075 H   0  0  0  0  0  0
    2.9587   -3.7984   -2.0297 H   0  0  0  0  0  0
   -4.8741   -3.1251   -2.5995 H   0  0  0  0  0  0
   -4.9715   -1.0972    1.2002 H   0  0  0  0  0  0
    2.2758    7.5740    1.0838 H   0  0  0  0  0  0
   -1.5159    6.6779    2.9247 H   0  0  0  0  0  0
   -6.0687   -2.5526   -0.4932 H   0  0  0  0  0  0
    0.2281    8.3299    2.2777 H   0  0  0  0  0  0
    4.9914   -2.9781    2.4734 H   0  0  0  0  0  0
    3.5976   -3.9232    2.8681 H   0  0  0  0  0  0
    4.1440   -1.9659   -0.8011 H   0  0  0  0  0  0
    5.3462   -2.0795    0.4240 H   0  0  0  0  0  0
    5.5668   -5.3942    2.4370 H   0  0  0  0  0  0
    4.3273   -5.7071    1.2271 H   0  0  0  0  0  0
    5.7386   -4.7337    0.8136 H   0  0  0  0  0  0
    4.3937    0.2126    0.3746 H   0  0  0  0  0  0
    2.7795   -0.4137    0.6858 H   0  0  0  0  0  0
    4.0277   -0.5431    1.9221 H   0  0  0  0  0  0
    0.0548    2.6671   -0.0841 N   0  3  2  0  0  0
   -0.8777    3.0122    0.0935 H   0  0  0  0  0  0
  1 27  2  0  0  0
  2  4  1  0  0  0
  2 10  1  0  0  0
  2 11  1  0  0  0
  3 27  1  0  0  0
  3 29  1  0  0  0
  3 30  1  0  0  0
  4  5  1  0  0  0
  4  6  1  0  0  0
  4 33  1  0  0  0
  5  7  1  0  0  0
  5 34  1  0  0  0
  5 35  1  0  0  0
  6 36  1  0  0  0
  6 37  1  0  0  0
  6 68  1  0  0  0
  7  8  1  0  0  0
  7 38  1  0  0  0
  7 39  1  0  0  0
  8 40  1  0  0  0
  8 41  1  0  0  0
  8 68  1  0  0  0
  9 12  1  0  0  0
  9 42  1  0  0  0
  9 43  1  0  0  0
  9 68  1  0  0  0
 10 13  1  0  0  0
 10 14  2  0  0  0
 11 15  2  0  0  0
 11 16  1  0  0  0
 12 17  2  0  0  0
 12 18  1  0  0  0
 13 19  2  0  0  0
 13 44  1  0  0  0
 14 20  1  0  0  0
 14 45  1  0  0  0
 15 22  1  0  0  0
 15 46  1  0  0  0
 16 23  2  0  0  0
 16 47  1  0  0  0
 17 24  1  0  0  0
 17 48  1  0  0  0
 18 25  2  0  0  0
 18 49  1  0  0  0
 19 21  1  0  0  0
 19 27  1  0  0  0
 20 21  2  0  0  0
 20 50  1  0  0  0
 21 51  1  0  0  0
 22 26  2  0  0  0
 22 52  1  0  0  0
 23 26  1  0  0  0
 23 53  1  0  0  0
 24 28  2  0  0  0
 24 54  1  0  0  0
 25 28  1  0  0  0
 25 55  1  0  0  0
 26 56  1  0  0  0
 28 57  1  0  0  0
 29 31  1  0  0  0
 29 58  1  0  0  0
 29 59  1  0  0  0
 30 32  1  0  0  0
 30 60  1  0  0  0
 30 61  1  0  0  0
 31 62  1  0  0  0
 31 63  1  0  0  0
 31 64  1  0  0  0
 32 65  1  0  0  0
 32 66  1  0  0  0
 32 67  1  0  0  0
 68 69  1  0  0  0
M  CHG  1  68   1
M  END
> <LID>
L018216

> <PC_CID>
12988896

> <Names>


> <CAS_Numbers>


$$$$
9930397
                    3D
 Structure written by MMmdl.
 52 54  0  0  1  0            999 V2000
    7.0198    1.5166   -0.5668 Cl  0  0  0  0  0  0
   -3.8915    3.4349    2.1016 O   0  0  0  0  0  0
    1.4772   -0.8975    0.0384 C   0  0  1  0  0  0
    1.5543   -2.4050    0.3443 C   0  0  0  0  0  0
    0.6482   -0.1334    1.0902 C   0  0  0  0  0  0
    0.2076   -3.1390    0.2468 C   0  0  0  0  0  0
   -0.8412   -2.6790    1.2751 C   0  0  0  0  0  0
   -0.8491   -0.1943    0.8266 C   0  0  0  0  0  0
   -1.5309   -1.3640    0.9120 C   0  0  0  0  0  0
    2.8682   -0.2934   -0.1112 C   0  0  0  0  0  0
   -3.0465   -1.4637    0.7056 C   0  0  0  0  0  0
   -1.5333    1.0768    0.5345 C   0  0  0  0  0  0
    3.2851    0.2298   -1.3547 C   0  0  0  0  0  0
    3.7519   -0.2493    0.9900 C   0  0  0  0  0  0
   -2.3984    1.6622    1.4829 C   0  0  0  0  0  0
   -1.2920    1.7242   -0.6949 C   0  0  0  0  0  0
    4.5699    0.7897   -1.4953 C   0  0  0  0  0  0
    5.0365    0.3107    0.8490 C   0  0  0  0  0  0
   -2.9787   -1.9297   -1.7326 C   0  0  0  0  0  0
   -4.9360   -0.8367   -0.7365 C   0  0  0  0  0  0
    5.4462    0.8304   -0.3938 C   0  0  0  0  0  0
   -3.0447    2.8785    1.1883 C   0  0  0  0  0  0
   -1.9374    2.9415   -0.9861 C   0  0  0  0  0  0
   -2.8160    3.5169   -0.0472 C   0  0  0  0  0  0
    0.9846   -0.7787   -0.9282 H   0  0  0  0  0  0
    1.9924   -2.5690    1.3296 H   0  0  0  0  0  0
    2.2382   -2.8706   -0.3667 H   0  0  0  0  0  0
    0.9322    0.9202    1.0716 H   0  0  0  0  0  0
    0.8737   -0.4721    2.1021 H   0  0  0  0  0  0
    0.3985   -4.2003    0.4096 H   0  0  0  0  0  0
   -0.1895   -3.0666   -0.7649 H   0  0  0  0  0  0
   -0.3867   -2.5842    2.2620 H   0  0  0  0  0  0
   -1.5814   -3.4715    1.3808 H   0  0  0  0  0  0
   -3.4127   -2.4738    0.8908 H   0  0  0  0  0  0
   -3.5321   -0.8399    1.4561 H   0  0  0  0  0  0
    2.6231    0.2050   -2.2079 H   0  0  0  0  0  0
    3.4473   -0.6444    1.9480 H   0  0  0  0  0  0
   -2.5696    1.1796    2.4344 H   0  0  0  0  0  0
   -0.6170    1.2884   -1.4174 H   0  0  0  0  0  0
    4.8822    1.1879   -2.4496 H   0  0  0  0  0  0
    5.7066    0.3409    1.6956 H   0  0  0  0  0  0
   -3.3376   -1.5910   -2.7051 H   0  0  0  0  0  0
   -1.8906   -1.9222   -1.7740 H   0  0  0  0  0  0
   -3.3140   -2.9569   -1.5841 H   0  0  0  0  0  0
   -5.2178   -0.4536   -1.7179 H   0  0  0  0  0  0
   -5.4744   -1.7698   -0.5652 H   0  0  0  0  0  0
   -5.2649   -0.1091    0.0065 H   0  0  0  0  0  0
   -1.7571    3.4357   -1.9295 H   0  0  0  0  0  0
   -3.3079    4.4507   -0.2775 H   0  0  0  0  0  0
   -4.2578    4.2591    1.8192 H   0  0  0  0  0  0
   -3.4738   -1.0444   -0.6544 N   0  3  0  0  0  0
   -3.0565   -0.1376   -0.8132 H   0  0  0  0  0  0
  1 21  1  0  0  0
  2 22  1  0  0  0
  2 50  1  0  0  0
  3  4  1  0  0  0
  3  5  1  0  0  0
  3 10  1  0  0  0
  3 25  1  0  0  0
  4  6  1  0  0  0
  4 26  1  0  0  0
  4 27  1  0  0  0
  5  8  1  0  0  0
  5 28  1  0  0  0
  5 29  1  0  0  0
  6  7  1  0  0  0
  6 30  1  0  0  0
  6 31  1  0  0  0
  7  9  1  0  0  0
  7 32  1  0  0  0
  7 33  1  0  0  0
  8  9  2  0  0  0
  8 12  1  0  0  0
  9 11  1  0  0  0
 10 13  2  0  0  0
 10 14  1  0  0  0
 11 34  1  0  0  0
 11 35  1  0  0  0
 11 51  1  0  0  0
 12 15  2  0  0  0
 12 16  1  0  0  0
 13 17  1  0  0  0
 13 36  1  0  0  0
 14 18  2  0  0  0
 14 37  1  0  0  0
 15 22  1  0  0  0
 15 38  1  0  0  0
 16 23  2  0  0  0
 16 39  1  0  0  0
 17 21  2  0  0  0
 17 40  1  0  0  0
 18 21  1  0  0  0
 18 41  1  0  0  0
 19 42  1  0  0  0
 19 43  1  0  0  0
 19 44  1  0  0  0
 19 51  1  0  0  0
 20 45  1  0  0  0
 20 46  1  0  0  0
 20 47  1  0  0  0
 20 51  1  0  0  0
 22 24  2  0  0  0
 23 24  1  0  0  0
 23 48  1  0  0  0
 24 49  1  0  0  0
 51 52  1  0  0  0
M  CHG  1  51   1
M  END
> <LID>
L019787

> <PC_CID>
9930397

> <Names>


> <CAS_Numbers>


$$$$
11340460
                    3D
 Structure written by MMmdl.
 67 70  0  0  1  0            999 V2000
   -1.1824   -2.6381    5.5089 Cl  0  0  0  0  0  0
   -2.1540    4.3975   -1.2467 O   0  0  0  0  0  0
    2.1534    0.5140    1.8089 N   0  0  0  0  0  0
   -3.7705    2.9301   -1.8975 N   0  0  0  0  0  0
    1.0573   -2.3160   -0.7282 C   0  0  0  0  0  0
    2.0468   -3.4566   -0.4861 C   0  0  0  0  0  0
   -0.3099   -2.8496   -1.1543 C   0  0  0  0  0  0
    1.4681   -4.5271    0.4583 C   0  0  0  0  0  0
   -0.8346   -3.8976   -0.1611 C   0  0  0  0  0  0
    1.3645   -0.9961   -0.6081 C   0  0  0  0  0  0
    2.7413   -0.5400   -0.3015 C   0  0  0  0  0  0
    0.3573    0.0607   -0.8304 C   0  0  0  0  0  0
    3.0676    0.2032    0.8679 C   0  0  0  0  0  0
    0.5444    1.0076   -1.8597 C   0  0  0  0  0  0
   -0.7730    0.1760    0.0089 C   0  0  0  0  0  0
    3.7584   -0.7990   -1.2494 C   0  0  0  0  0  0
   -1.5372    2.1306   -1.2420 C   0  0  0  0  0  0
   -0.3943    2.0374   -2.0632 C   0  0  0  0  0  0
   -1.7125    1.2045   -0.1922 C   0  0  0  0  0  0
    4.3874    0.6619    1.0623 C   0  0  0  0  0  0
    5.0749   -0.3491   -1.0413 C   0  0  0  0  0  0
   -2.5221    3.2417   -1.4602 C   0  0  0  0  0  0
    5.3901    0.3829    0.1162 C   0  0  0  0  0  0
   -4.7700    3.9882   -2.1078 C   0  0  0  0  0  0
   -4.2094    1.5892   -2.3203 C   0  0  0  0  0  0
    1.4097   -0.2211    2.6569 C   0  0  0  0  0  0
   -4.5832    4.6926   -3.4608 C   0  0  0  0  0  0
   -5.0901    0.8999   -1.2656 C   0  0  0  0  0  0
    0.3706    0.4049    3.3761 C   0  0  0  0  0  0
    1.6508   -1.6000    2.8424 C   0  0  0  0  0  0
   -0.4334   -0.3429    4.2582 C   0  0  0  0  0  0
    0.8495   -2.3469    3.7276 C   0  0  0  0  0  0
   -0.1956   -1.7198    4.4325 C   0  0  0  0  0  0
    2.2841   -3.9075   -1.4504 H   0  0  0  0  0  0
    2.9899   -3.1058   -0.0702 H   0  0  0  0  0  0
   -1.0542   -2.0685   -1.2911 H   0  0  0  0  0  0
   -0.1925   -3.3108   -2.1358 H   0  0  0  0  0  0
    2.1445   -5.3799    0.5208 H   0  0  0  0  0  0
    1.3718   -4.1290    1.4675 H   0  0  0  0  0  0
   -1.7798   -4.3120   -0.5124 H   0  0  0  0  0  0
   -1.0285   -3.4356    0.8083 H   0  0  0  0  0  0
    1.4135    0.9477   -2.4986 H   0  0  0  0  0  0
   -0.9178   -0.5244    0.8184 H   0  0  0  0  0  0
    3.5261   -1.3455   -2.1519 H   0  0  0  0  0  0
   -0.2350    2.7536   -2.8565 H   0  0  0  0  0  0
   -2.5577    1.2866    0.4741 H   0  0  0  0  0  0
    4.6401    1.2295    1.9465 H   0  0  0  0  0  0
    2.1295    1.5007    2.0230 H   0  0  0  0  0  0
    5.8404   -0.5586   -1.7740 H   0  0  0  0  0  0
    6.3986    0.7348    0.2765 H   0  0  0  0  0  0
   -5.7763    3.5710   -2.0622 H   0  0  0  0  0  0
   -4.7257    4.7190   -1.2984 H   0  0  0  0  0  0
   -4.7780    1.6827   -3.2464 H   0  0  0  0  0  0
   -3.3697    0.9439   -2.5790 H   0  0  0  0  0  0
   -5.3457    5.4581   -3.6052 H   0  0  0  0  0  0
   -3.6107    5.1810   -3.5275 H   0  0  0  0  0  0
   -4.6614    3.9878   -4.2889 H   0  0  0  0  0  0
   -5.4015   -0.0853   -1.6130 H   0  0  0  0  0  0
   -4.5660    0.7618   -0.3219 H   0  0  0  0  0  0
   -5.9941    1.4726   -1.0594 H   0  0  0  0  0  0
    0.1760    1.4597    3.2457 H   0  0  0  0  0  0
    2.4518   -2.0912    2.3100 H   0  0  0  0  0  0
   -1.2328    0.1413    4.7996 H   0  0  0  0  0  0
    1.0379   -3.4012    3.8665 H   0  0  0  0  0  0
    0.1414   -4.9948    0.0050 N   0  3  0  0  0  0
   -0.2200   -5.6590    0.6750 H   0  0  0  0  0  0
    0.2530   -5.4598   -0.8847 H   0  0  0  0  0  0
  1 33  1  0  0  0
  2 22  2  0  0  0
  3 13  1  0  0  0
  3 26  1  0  0  0
  3 48  1  0  0  0
  4 22  1  0  0  0
  4 24  1  0  0  0
  4 25  1  0  0  0
  5  6  1  0  0  0
  5  7  1  0  0  0
  5 10  2  0  0  0
  6  8  1  0  0  0
  6 34  1  0  0  0
  6 35  1  0  0  0
  7  9  1  0  0  0
  7 36  1  0  0  0
  7 37  1  0  0  0
  8 38  1  0  0  0
  8 39  1  0  0  0
  8 65  1  0  0  0
  9 40  1  0  0  0
  9 41  1  0  0  0
  9 65  1  0  0  0
 10 11  1  0  0  0
 10 12  1  0  0  0
 11 13  1  0  0  0
 11 16  2  0  0  0
 12 14  2  0  0  0
 12 15  1  0  0  0
 13 20  2  0  0  0
 14 18  1  0  0  0
 14 42  1  0  0  0
 15 19  2  0  0  0
 15 43  1  0  0  0
 16 21  1  0  0  0
 16 44  1  0  0  0
 17 18  2  0  0  0
 17 19  1  0  0  0
 17 22  1  0  0  0
 18 45  1  0  0  0
 19 46  1  0  0  0
 20 23  1  0  0  0
 20 47  1  0  0  0
 21 23  2  0  0  0
 21 49  1  0  0  0
 23 50  1  0  0  0
 24 27  1  0  0  0
 24 51  1  0  0  0
 24 52  1  0  0  0
 25 28  1  0  0  0
 25 53  1  0  0  0
 25 54  1  0  0  0
 26 29  2  0  0  0
 26 30  1  0  0  0
 27 55  1  0  0  0
 27 56  1  0  0  0
 27 57  1  0  0  0
 28 58  1  0  0  0
 28 59  1  0  0  0
 28 60  1  0  0  0
 29 31  1  0  0  0
 29 61  1  0  0  0
 30 32  2  0  0  0
 30 62  1  0  0  0
 31 33  2  0  0  0
 31 63  1  0  0  0
 32 33  1  0  0  0
 32 64  1  0  0  0
 65 66  1  0  0  0
 65 67  1  0  0  0
M  CHG  1  65   1
M  END
> <LID>
L023446

> <PC_CID>
11340460

> <Names>


> <CAS_Numbers>


$$$$
15859353
                    3D
 Structure written by MMmdl.
 44 46  0  0  1  0            999 V2000
    2.6745   -0.7744    1.5769 O   0  0  0  0  0  0
   -3.7052    2.1452   -1.5880 O   0  0  0  0  0  0
    0.2411   -1.4915    0.2268 C   0  0  0  0  0  0
    1.4902   -2.3391    0.0313 C   0  0  0  0  0  0
    0.2856   -0.1437    0.0861 C   0  0  0  0  0  0
   -1.0193   -2.2789    0.5828 C   0  0  0  0  0  0
    1.5798    0.5322   -0.1530 C   0  0  0  0  0  0
    2.5213   -2.1272    1.1542 C   0  0  0  0  0  0
   -0.9079    0.6851    0.3126 C   0  0  0  0  0  0
    2.7374    0.1710    0.5838 C   0  0  0  0  0  0
    1.6789    1.5489   -1.1290 C   0  0  0  0  0  0
    3.9596    0.8329    0.3526 C   0  0  0  0  0  0
   -1.7504    1.0242   -0.7662 C   0  0  0  0  0  0
   -1.1852    1.1701    1.6072 C   0  0  0  0  0  0
   -2.4571   -4.1561   -0.0854 C   0  0  0  0  0  0
   -1.9338   -2.4053   -1.7183 C   0  0  0  0  0  0
    2.9054    2.1982   -1.3666 C   0  0  0  0  0  0
    4.0465    1.8410   -0.6253 C   0  0  0  0  0  0
   -2.8855    1.8279   -0.5448 C   0  0  0  0  0  0
   -2.3198    1.9756    1.8256 C   0  0  0  0  0  0
   -3.1711    2.3021    0.7515 C   0  0  0  0  0  0
    1.2395   -3.3972   -0.0457 H   0  0  0  0  0  0
    1.9350   -2.0759   -0.9296 H   0  0  0  0  0  0
   -0.7824   -2.8885    1.4560 H   0  0  0  0  0  0
   -1.8451   -1.6341    0.8834 H   0  0  0  0  0  0
    2.2186   -2.7011    2.0304 H   0  0  0  0  0  0
    3.4916   -2.5210    0.8496 H   0  0  0  0  0  0
    0.8128    1.8363   -1.7065 H   0  0  0  0  0  0
    4.8334    0.5666    0.9290 H   0  0  0  0  0  0
   -1.5292    0.6683   -1.7618 H   0  0  0  0  0  0
   -0.5323    0.9240    2.4322 H   0  0  0  0  0  0
   -2.7151   -4.8340   -0.8998 H   0  0  0  0  0  0
   -2.0603   -4.7596    0.7318 H   0  0  0  0  0  0
   -3.3720   -3.6722    0.2595 H   0  0  0  0  0  0
   -2.2277   -3.0902   -2.5144 H   0  0  0  0  0  0
   -2.7942   -1.7816   -1.4720 H   0  0  0  0  0  0
   -1.1479   -1.7642   -2.1178 H   0  0  0  0  0  0
    2.9695    2.9732   -2.1161 H   0  0  0  0  0  0
    4.9862    2.3430   -0.8027 H   0  0  0  0  0  0
   -2.5365    2.3445    2.8174 H   0  0  0  0  0  0
   -4.0397    2.9201    0.9268 H   0  0  0  0  0  0
   -4.4291    2.6993   -1.3387 H   0  0  0  0  0  0
   -1.4631   -3.1550   -0.5307 N   0  3  0  0  0  0
   -0.6501   -3.6781   -0.8241 H   0  0  0  0  0  0
  1  8  1  0  0  0
  1 10  1  0  0  0
  2 19  1  0  0  0
  2 42  1  0  0  0
  3  4  1  0  0  0
  3  5  2  0  0  0
  3  6  1  0  0  0
  4  8  1  0  0  0
  4 22  1  0  0  0
  4 23  1  0  0  0
  5  7  1  0  0  0
  5  9  1  0  0  0
  6 24  1  0  0  0
  6 25  1  0  0  0
  6 43  1  0  0  0
  7 10  1  0  0  0
  7 11  2  0  0  0
  8 26  1  0  0  0
  8 27  1  0  0  0
  9 13  2  0  0  0
  9 14  1  0  0  0
 10 12  2  0  0  0
 11 17  1  0  0  0
 11 28  1  0  0  0
 12 18  1  0  0  0
 12 29  1  0  0  0
 13 19  1  0  0  0
 13 30  1  0  0  0
 14 20  2  0  0  0
 14 31  1  0  0  0
 15 32  1  0  0  0
 15 33  1  0  0  0
 15 34  1  0  0  0
 15 43  1  0  0  0
 16 35  1  0  0  0
 16 36  1  0  0  0
 16 37  1  0  0  0
 16 43  1  0  0  0
 17 18  2  0  0  0
 17 38  1  0  0  0
 18 39  1  0  0  0
 19 21  2  0  0  0
 20 21  1  0  0  0
 20 40  1  0  0  0
 21 41  1  0  0  0
 43 44  1  0  0  0
M  CHG  1  43   1
M  END
> <LID>
L018920

> <PC_CID>
15859353

> <Names>


> <CAS_Numbers>


$$$$
44214650
                    3D
 Structure written by MMmdl.
 78 85  0  0  1  0            999 V2000
   -5.4704   -0.0414   -9.3814 O   0  0  0  0  0  0
   -6.4985    2.2835   -7.8339 O   0  0  0  0  0  0
   -3.2126    2.1039   -6.2164 O   0  0  0  0  0  0
   -6.4751   -1.6363  -11.6628 O   0  0  0  0  0  0
   -4.5598    3.5891   -5.1755 N   0  0  0  0  0  0
   -4.7017   -1.0345   -7.3246 C   0  0  2  0  0  0
   -5.4616   -1.1636   -5.9767 C   0  0  1  0  0  0
   -5.0214    0.3178   -8.0582 C   0  0  2  0  0  0
   -5.1105   -2.5790   -5.4377 C   0  0  1  0  0  0
   -6.0809    1.0896   -7.2029 C   0  0  1  0  0  0
   -5.0879    0.0490   -5.0715 C   0  0  0  0  0  0
   -3.1731   -1.2377   -7.1531 C   0  0  0  0  0  0
   -5.4834    1.3987   -5.7781 C   0  0  1  0  0  0
   -5.2775   -2.0506   -8.2621 C   0  0  0  0  0  0
   -6.9540   -0.9664   -6.2710 C   0  0  0  0  0  0
   -5.5457   -3.7152   -6.4294 C   0  0  0  0  0  0
   -2.8115   -2.5122   -6.3732 C   0  0  0  0  0  0
   -7.2607    0.1626   -6.9317 C   0  0  0  0  0  0
   -5.5821   -3.3808   -7.9290 C   0  0  0  0  0  0
   -5.6070   -1.4001   -9.4339 C   0  0  0  0  0  0
   -3.2524   -3.7833   -4.2809 C   0  0  0  0  0  0
   -1.9110   -3.5589   -3.6082 C   0  0  0  0  0  0
   -4.3147    2.4057   -5.7606 C   0  0  0  0  0  0
   -6.1171   -4.1640   -8.9733 C   0  0  0  0  0  0
   -1.2810   -4.6695   -2.7988 C   0  0  0  0  0  0
   -0.6606   -4.2509   -4.1064 C   0  0  0  0  0  0
   -6.1397   -2.2002  -10.4664 C   0  0  0  0  0  0
   -6.3585   -3.5837  -10.2441 C   0  0  0  0  0  0
   -3.5762    4.6447   -4.9501 C   0  0  0  0  0  0
   -3.0237    4.6275   -3.5093 C   0  0  0  0  0  0
   -2.2915    3.3361   -3.0940 C   0  0  0  0  0  0
   -0.9588    3.1136   -3.8282 C   0  0  0  0  0  0
   -0.3593    1.7522   -3.5294 C   0  0  0  0  0  0
    0.2549    1.5057   -2.2836 C   0  0  0  0  0  0
   -0.4139    0.7257   -4.4963 C   0  0  0  0  0  0
    0.8105    0.2413   -2.0065 C   0  0  0  0  0  0
    0.1469   -0.5361   -4.2208 C   0  0  0  0  0  0
    0.7577   -0.7793   -2.9753 C   0  0  0  0  0  0
   -4.1243    0.9182   -8.1999 H   0  0  0  0  0  0
   -5.6341   -2.7229   -4.4915 H   0  0  0  0  0  0
   -4.0338    0.0292   -4.7941 H   0  0  0  0  0  0
   -5.6269   -0.0295   -4.1262 H   0  0  0  0  0  0
   -2.6816   -1.2495   -8.1268 H   0  0  0  0  0  0
   -2.7445   -0.3885   -6.6249 H   0  0  0  0  0  0
   -6.2863    1.8432   -5.1858 H   0  0  0  0  0  0
   -7.6844   -1.7110   -5.9903 H   0  0  0  0  0  0
   -4.9672   -4.6269   -6.2872 H   0  0  0  0  0  0
   -6.5685   -3.9950   -6.1751 H   0  0  0  0  0  0
   -1.7560   -2.4708   -6.1055 H   0  0  0  0  0  0
   -2.9256   -3.3932   -7.0052 H   0  0  0  0  0  0
   -8.2641    0.4322   -7.2267 H   0  0  0  0  0  0
   -3.2307   -4.7165   -4.8446 H   0  0  0  0  0  0
   -3.9923   -3.9091   -3.4896 H   0  0  0  0  0  0
   -1.7893   -2.5633   -3.1853 H   0  0  0  0  0  0
   -6.7202    2.0823   -8.7310 H   0  0  0  0  0  0
   -6.3933   -5.1922   -8.7914 H   0  0  0  0  0  0
   -1.7900   -5.6312   -2.7712 H   0  0  0  0  0  0
   -0.7601   -4.3917   -1.8846 H   0  0  0  0  0  0
    0.2750   -3.6979   -4.0628 H   0  0  0  0  0  0
   -0.7573   -4.9333   -4.9486 H   0  0  0  0  0  0
   -6.7803   -4.1933  -11.0298 H   0  0  0  0  0  0
   -5.4938    3.7595   -4.8319 H   0  0  0  0  0  0
   -6.8323   -2.2555  -12.2804 H   0  0  0  0  0  0
   -2.7668    4.5931   -5.6794 H   0  0  0  0  0  0
   -4.0725    5.5987   -5.1297 H   0  0  0  0  0  0
   -2.3545    5.4777   -3.3729 H   0  0  0  0  0  0
   -3.8525    4.7917   -2.8196 H   0  0  0  0  0  0
   -2.0989    3.3699   -2.0212 H   0  0  0  0  0  0
   -2.9450    2.4770   -3.2447 H   0  0  0  0  0  0
   -1.0933    3.2051   -4.9055 H   0  0  0  0  0  0
   -0.2436    3.8871   -3.5461 H   0  0  0  0  0  0
    0.3005    2.2858   -1.5376 H   0  0  0  0  0  0
   -0.8804    0.9040   -5.4540 H   0  0  0  0  0  0
    1.2798    0.0556   -1.0516 H   0  0  0  0  0  0
    0.1105   -1.3165   -4.9660 H   0  0  0  0  0  0
    1.1875   -1.7470   -2.7629 H   0  0  0  0  0  0
   -3.6446   -2.6427   -5.1484 N   0  3  2  0  0  0
   -3.4547   -1.8189   -4.5955 H   0  0  0  0  0  0
  1  8  1  0  0  0
  1 20  1  0  0  0
  2 10  1  0  0  0
  2 55  1  0  0  0
  3 23  2  0  0  0
  4 27  1  0  0  0
  4 63  1  0  0  0
  5 23  1  0  0  0
  5 29  1  0  0  0
  5 62  1  0  0  0
  6  7  1  0  0  0
  6  8  1  0  0  0
  6 12  1  0  0  0
  6 14  1  0  0  0
  7  9  1  0  0  0
  7 11  1  0  0  0
  7 15  1  0  0  0
  8 10  1  0  0  0
  8 39  1  0  0  0
  9 16  1  0  0  0
  9 40  1  0  0  0
  9 77  1  0  0  0
 10 13  1  0  0  0
 10 18  1  0  0  0
 11 13  1  0  0  0
 11 41  1  0  0  0
 11 42  1  0  0  0
 12 17  1  0  0  0
 12 43  1  0  0  0
 12 44  1  0  0  0
 13 23  1  0  0  0
 13 45  1  0  0  0
 14 19  2  0  0  0
 14 20  1  0  0  0
 15 18  2  0  0  0
 15 46  1  0  0  0
 16 19  1  0  0  0
 16 47  1  0  0  0
 16 48  1  0  0  0
 17 49  1  0  0  0
 17 50  1  0  0  0
 17 77  1  0  0  0
 18 51  1  0  0  0
 19 24  1  0  0  0
 20 27  2  0  0  0
 21 22  1  0  0  0
 21 52  1  0  0  0
 21 53  1  0  0  0
 21 77  1  0  0  0
 22 25  1  0  0  0
 22 26  1  0  0  0
 22 54  1  0  0  0
 24 28  2  0  0  0
 24 56  1  0  0  0
 25 26  1  0  0  0
 25 57  1  0  0  0
 25 58  1  0  0  0
 26 59  1  0  0  0
 26 60  1  0  0  0
 27 28  1  0  0  0
 28 61  1  0  0  0
 29 30  1  0  0  0
 29 64  1  0  0  0
 29 65  1  0  0  0
 30 31  1  0  0  0
 30 66  1  0  0  0
 30 67  1  0  0  0
 31 32  1  0  0  0
 31 68  1  0  0  0
 31 69  1  0  0  0
 32 33  1  0  0  0
 32 70  1  0  0  0
 32 71  1  0  0  0
 33 34  2  0  0  0
 33 35  1  0  0  0
 34 36  1  0  0  0
 34 72  1  0  0  0
 35 37  2  0  0  0
 35 73  1  0  0  0
 36 38  2  0  0  0
 36 74  1  0  0  0
 37 38  1  0  0  0
 37 75  1  0  0  0
 38 76  1  0  0  0
 77 78  1  0  0  0
M  CHG  1  77   1
M  END
> <LID>
L018287

> <PC_CID>
44214650

> <Names>


> <CAS_Numbers>


$$$$
44214651
                    3D
 Structure written by MMmdl.
 81 88  0  0  1  0            999 V2000
   12.8982    5.0100    2.7129 O   0  0  0  0  0  0
   14.8732    5.6020    5.3322 O   0  0  0  0  0  0
   10.9889    5.9858    0.5507 O   0  0  0  0  0  0
   18.6441    7.1549    2.6113 O   0  0  0  0  0  0
   16.5407    6.8361    3.3838 N   0  0  0  0  0  0
   14.5853    3.5006    2.1788 C   0  0  2  0  0  0
   16.0937    3.2329    2.2105 C   0  0  1  0  0  0
   14.2790    4.7268    3.0213 C   0  0  2  0  0  0
   16.2797    2.3081    0.9617 C   0  0  1  0  0  0
   15.2881    4.8009    4.2317 C   0  0  1  0  0  0
   16.9061    4.5797    2.2383 C   0  0  0  0  0  0
   13.7883    2.2012    2.5461 C   0  0  0  0  0  0
   16.6052    5.3861    3.5780 C   0  0  1  0  0  0
   13.9867    3.9919    0.9327 C   0  0  0  0  0  0
   16.3240    2.6583    3.6193 C   0  0  0  0  0  0
   15.8397    3.0317   -0.3619 C   0  0  0  0  0  0
   14.4965    0.8866    2.1341 C   0  0  0  0  0  0
   15.8143    3.4061    4.6278 C   0  0  0  0  0  0
   14.4515    3.7006   -0.3442 C   0  0  0  0  0  0
   12.8991    4.7588    1.3385 C   0  0  0  0  0  0
   16.3381   -0.1756    0.8337 C   0  0  0  0  0  0
   15.5416   -1.4085    0.4417 C   0  0  0  0  0  0
   13.6277    4.1890   -1.3817 C   0  0  0  0  0  0
   12.0852    5.2204    0.2832 C   0  0  0  0  0  0
   15.1949   -1.6820   -1.0037 C   0  0  0  0  0  0
   16.2157   -2.5408   -0.2989 C   0  0  0  0  0  0
   12.4406    4.9120   -1.0626 C   0  0  0  0  0  0
   13.7069    5.1405    5.9982 C   0  0  0  0  0  0
   17.5386    7.6006    2.9173 C   0  0  0  0  0  0
   17.2453    9.0953    2.7669 C   0  0  0  0  0  0
   17.4551    9.6195    1.3306 C   0  0  0  0  0  0
   16.2494    9.4485    0.3854 C   0  0  0  0  0  0
   15.8957    7.9946    0.0245 C   0  0  0  0  0  0
   14.8745    7.9160   -1.0947 C   0  0  0  0  0  0
   15.2475    7.4322   -2.3666 C   0  0  0  0  0  0
   13.5463    8.3359   -0.8702 C   0  0  0  0  0  0
   14.2999    7.3738   -3.4072 C   0  0  0  0  0  0
   12.6003    8.2816   -1.9122 C   0  0  0  0  0  0
   12.9769    7.8005   -3.1811 C   0  0  0  0  0  0
   14.6080    5.6383    2.5125 H   0  0  0  0  0  0
   17.3422    2.0732    0.8828 H   0  0  0  0  0  0
   17.9756    4.3809    2.1614 H   0  0  0  0  0  0
   16.6515    5.1823    1.3657 H   0  0  0  0  0  0
   12.7842    2.2122    2.1184 H   0  0  0  0  0  0
   13.6059    2.1609    3.6205 H   0  0  0  0  0  0
   17.4344    5.2302    4.2730 H   0  0  0  0  0  0
   16.7949    1.6970    3.7632 H   0  0  0  0  0  0
   15.8792    2.3366   -1.2015 H   0  0  0  0  0  0
   16.5631    3.8127   -0.5975 H   0  0  0  0  0  0
   14.9934    0.4530    3.0023 H   0  0  0  0  0  0
   13.7360    0.1601    1.8484 H   0  0  0  0  0  0
   15.8720    3.1143    5.6659 H   0  0  0  0  0  0
   16.9015   -0.3828    1.7445 H   0  0  0  0  0  0
   17.0693    0.0144    0.0461 H   0  0  0  0  0  0
   14.8147   -1.7299    1.1846 H   0  0  0  0  0  0
   15.6722    7.2873    3.6332 H   0  0  0  0  0  0
   13.9047    4.0343   -2.4141 H   0  0  0  0  0  0
   15.5594   -0.9846   -1.7555 H   0  0  0  0  0  0
   14.2224   -2.1240   -1.2114 H   0  0  0  0  0  0
   15.9234   -3.5563   -0.0387 H   0  0  0  0  0  0
   17.2585   -2.4155   -0.5841 H   0  0  0  0  0  0
   11.8217    5.2809   -1.8673 H   0  0  0  0  0  0
   12.8404    5.1343    5.3375 H   0  0  0  0  0  0
   13.8405    4.1385    6.4060 H   0  0  0  0  0  0
   13.4807    5.8074    6.8300 H   0  0  0  0  0  0
   10.8679    6.1339    1.4763 H   0  0  0  0  0  0
   16.2399    9.3332    3.1174 H   0  0  0  0  0  0
   17.9295    9.6171    3.4369 H   0  0  0  0  0  0
   17.6767   10.6853    1.3948 H   0  0  0  0  0  0
   18.3422    9.1714    0.8803 H   0  0  0  0  0  0
   15.3771    9.9488    0.8074 H   0  0  0  0  0  0
   16.4806    9.9820   -0.5376 H   0  0  0  0  0  0
   16.7958    7.4509   -0.2651 H   0  0  0  0  0  0
   15.4831    7.4764    0.8892 H   0  0  0  0  0  0
   16.2612    7.1076   -2.5505 H   0  0  0  0  0  0
   13.2497    8.7027    0.1016 H   0  0  0  0  0  0
   14.5886    7.0036   -4.3798 H   0  0  0  0  0  0
   11.5846    8.6036   -1.7359 H   0  0  0  0  0  0
   12.2507    7.7561   -3.9792 H   0  0  0  0  0  0
   15.4890    1.0295    1.0248 N   0  3  2  0  0  0
   14.9183    1.0745    0.1922 H   0  0  0  0  0  0
  1  8  1  0  0  0
  1 20  1  0  0  0
  2 10  1  0  0  0
  2 28  1  0  0  0
  3 24  1  0  0  0
  3 66  1  0  0  0
  4 29  2  0  0  0
  5 13  1  0  0  0
  5 29  1  0  0  0
  5 56  1  0  0  0
  6  7  1  0  0  0
  6  8  1  0  0  0
  6 12  1  0  0  0
  6 14  1  0  0  0
  7  9  1  0  0  0
  7 11  1  0  0  0
  7 15  1  0  0  0
  8 10  1  0  0  0
  8 40  1  0  0  0
  9 16  1  0  0  0
  9 41  1  0  0  0
  9 80  1  0  0  0
 10 13  1  0  0  0
 10 18  1  0  0  0
 11 13  1  0  0  0
 11 42  1  0  0  0
 11 43  1  0  0  0
 12 17  1  0  0  0
 12 44  1  0  0  0
 12 45  1  0  0  0
 13 46  1  0  0  0
 14 19  2  0  0  0
 14 20  1  0  0  0
 15 18  2  0  0  0
 15 47  1  0  0  0
 16 19  1  0  0  0
 16 48  1  0  0  0
 16 49  1  0  0  0
 17 50  1  0  0  0
 17 51  1  0  0  0
 17 80  1  0  0  0
 18 52  1  0  0  0
 19 23  1  0  0  0
 20 24  2  0  0  0
 21 22  1  0  0  0
 21 53  1  0  0  0
 21 54  1  0  0  0
 21 80  1  0  0  0
 22 25  1  0  0  0
 22 26  1  0  0  0
 22 55  1  0  0  0
 23 27  2  0  0  0
 23 57  1  0  0  0
 24 27  1  0  0  0
 25 26  1  0  0  0
 25 58  1  0  0  0
 25 59  1  0  0  0
 26 60  1  0  0  0
 26 61  1  0  0  0
 27 62  1  0  0  0
 28 63  1  0  0  0
 28 64  1  0  0  0
 28 65  1  0  0  0
 29 30  1  0  0  0
 30 31  1  0  0  0
 30 67  1  0  0  0
 30 68  1  0  0  0
 31 32  1  0  0  0
 31 69  1  0  0  0
 31 70  1  0  0  0
 32 33  1  0  0  0
 32 71  1  0  0  0
 32 72  1  0  0  0
 33 34  1  0  0  0
 33 73  1  0  0  0
 33 74  1  0  0  0
 34 35  2  0  0  0
 34 36  1  0  0  0
 35 37  1  0  0  0
 35 75  1  0  0  0
 36 38  2  0  0  0
 36 76  1  0  0  0
 37 39  2  0  0  0
 37 77  1  0  0  0
 38 39  1  0  0  0
 38 78  1  0  0  0
 39 79  1  0  0  0
 80 81  1  0  0  0
M  CHG  1  80   1
M  END
> <LID>
L018289

> <PC_CID>
44214651

> <Names>


> <CAS_Numbers>


$$$$
10298976
                    3D
 Structure written by MMmdl.
 69 72  0  0  1  0            999 V2000
   -4.8110   -4.4869    0.7495 O   0  0  0  0  0  0
    5.8830    0.9038   -0.4728 O   0  0  0  0  0  0
   -2.8939    4.3545   -2.6786 O   0  0  0  0  0  0
    5.5878   -1.3410   -0.2217 N   0  0  0  0  0  0
   -3.6584    5.9453   -1.2877 N   0  0  0  0  0  0
   -2.8746    0.3687    1.1534 C   0  0  0  0  0  0
   -1.0982   -1.3802    0.8252 C   0  0  0  0  0  0
   -3.7725   -0.3859    0.1605 C   0  0  0  0  0  0
   -2.0362   -2.1102   -0.1519 C   0  0  0  0  0  0
   -1.3999    0.1143    0.8610 C   0  0  0  0  0  0
   -4.4029   -2.6004   -0.7157 C   0  0  0  0  0  0
   -0.4785    1.0890    0.6460 C   0  0  0  0  0  0
    0.9432    0.7777    0.4204 C   0  0  0  0  0  0
   -0.8453    2.5151    0.6154 C   0  0  0  0  0  0
   -4.3429   -4.0706   -0.4609 C   0  0  0  0  0  0
    1.5436    1.0738   -0.8213 C   0  0  0  0  0  0
    1.7317    0.2261    1.4532 C   0  0  0  0  0  0
   -1.6643    3.0222   -0.4170 C   0  0  0  0  0  0
   -0.3394    3.3978    1.5918 C   0  0  0  0  0  0
   -3.8915   -5.1370   -1.1886 C   0  0  0  0  0  0
    3.6849    0.2091   -0.0183 C   0  0  0  0  0  0
    2.9066    0.7948   -1.0387 C   0  0  0  0  0  0
    3.0946   -0.0535    1.2373 C   0  0  0  0  0  0
   -2.0078    4.3915   -0.4641 C   0  0  0  0  0  0
   -0.6628    4.7666    1.5463 C   0  0  0  0  0  0
   -4.0967   -6.2887   -0.3798 C   0  0  0  0  0  0
   -4.6561   -5.8386    0.7820 C   0  0  0  0  0  0
   -1.4918    5.2635    0.5226 C   0  0  0  0  0  0
    5.1438   -0.0569   -0.2549 C   0  0  0  0  0  0
    7.0191   -1.6410   -0.3735 C   0  0  0  0  0  0
    4.7255   -2.5314   -0.1365 C   0  0  0  0  0  0
   -2.8730    4.9053   -1.5798 C   0  0  0  0  0  0
    7.7455   -1.5944    0.9780 C   0  0  0  0  0  0
    4.1093   -2.8850   -1.4981 C   0  0  0  0  0  0
   -3.1317    1.4263    1.1533 H   0  0  0  0  0  0
   -3.0794    0.0181    2.1657 H   0  0  0  0  0  0
   -1.2286   -1.7799    1.8316 H   0  0  0  0  0  0
   -0.0684   -1.5922    0.5427 H   0  0  0  0  0  0
   -4.8171   -0.2310    0.4336 H   0  0  0  0  0  0
   -3.6434    0.0224   -0.8434 H   0  0  0  0  0  0
   -1.8173   -1.7996   -1.1749 H   0  0  0  0  0  0
   -1.8346   -3.1804   -0.0988 H   0  0  0  0  0  0
   -5.4237   -2.2616   -0.5339 H   0  0  0  0  0  0
   -4.1900   -2.3895   -1.7647 H   0  0  0  0  0  0
    0.9579    1.5170   -1.6136 H   0  0  0  0  0  0
    1.2911    0.0178    2.4173 H   0  0  0  0  0  0
   -2.0348    2.3472   -1.1755 H   0  0  0  0  0  0
    0.3018    3.0264    2.3780 H   0  0  0  0  0  0
   -3.4650   -5.0941   -2.1801 H   0  0  0  0  0  0
    3.3514    1.0280   -1.9955 H   0  0  0  0  0  0
    3.6855   -0.4696    2.0407 H   0  0  0  0  0  0
   -0.2693    5.4381    2.2952 H   0  0  0  0  0  0
   -3.8640   -7.3164   -0.6173 H   0  0  0  0  0  0
   -4.9884   -6.3200    1.6902 H   0  0  0  0  0  0
   -1.7165    6.3199    0.5008 H   0  0  0  0  0  0
    7.1538   -2.6252   -0.8245 H   0  0  0  0  0  0
    7.4920   -0.9478   -1.0713 H   0  0  0  0  0  0
    5.3066   -3.3831    0.2202 H   0  0  0  0  0  0
    3.9412   -2.4141    0.6082 H   0  0  0  0  0  0
    8.8020   -1.8342    0.8578 H   0  0  0  0  0  0
    7.6805   -0.6039    1.4294 H   0  0  0  0  0  0
    7.3199   -2.3119    1.6801 H   0  0  0  0  0  0
    3.5075   -3.7910   -1.4256 H   0  0  0  0  0  0
    3.4616   -2.0886   -1.8648 H   0  0  0  0  0  0
    4.8822   -3.0598   -2.2471 H   0  0  0  0  0  0
   -4.2756    6.3163   -1.9951 H   0  0  0  0  0  0
   -3.6363    6.3512   -0.3640 H   0  0  0  0  0  0
   -3.4678   -1.8395    0.1490 N   0  3  2  0  0  0
   -3.6310   -2.1690    1.0900 H   0  0  0  0  0  0
  1 15  1  0  0  0
  1 27  1  0  0  0
  2 29  2  0  0  0
  3 32  2  0  0  0
  4 29  1  0  0  0
  4 30  1  0  0  0
  4 31  1  0  0  0
  5 32  1  0  0  0
  5 66  1  0  0  0
  5 67  1  0  0  0
  6  8  1  0  0  0
  6 10  1  0  0  0
  6 35  1  0  0  0
  6 36  1  0  0  0
  7  9  1  0  0  0
  7 10  1  0  0  0
  7 37  1  0  0  0
  7 38  1  0  0  0
  8 39  1  0  0  0
  8 40  1  0  0  0
  8 68  1  0  0  0
  9 41  1  0  0  0
  9 42  1  0  0  0
  9 68  1  0  0  0
 10 12  2  0  0  0
 11 15  1  0  0  0
 11 43  1  0  0  0
 11 44  1  0  0  0
 11 68  1  0  0  0
 12 13  1  0  0  0
 12 14  1  0  0  0
 13 16  2  0  0  0
 13 17  1  0  0  0
 14 18  2  0  0  0
 14 19  1  0  0  0
 15 20  2  0  0  0
 16 22  1  0  0  0
 16 45  1  0  0  0
 17 23  2  0  0  0
 17 46  1  0  0  0
 18 24  1  0  0  0
 18 47  1  0  0  0
 19 25  2  0  0  0
 19 48  1  0  0  0
 20 26  1  0  0  0
 20 49  1  0  0  0
 21 22  2  0  0  0
 21 23  1  0  0  0
 21 29  1  0  0  0
 22 50  1  0  0  0
 23 51  1  0  0  0
 24 28  2  0  0  0
 24 32  1  0  0  0
 25 28  1  0  0  0
 25 52  1  0  0  0
 26 27  2  0  0  0
 26 53  1  0  0  0
 27 54  1  0  0  0
 28 55  1  0  0  0
 30 33  1  0  0  0
 30 56  1  0  0  0
 30 57  1  0  0  0
 31 34  1  0  0  0
 31 58  1  0  0  0
 31 59  1  0  0  0
 33 60  1  0  0  0
 33 61  1  0  0  0
 33 62  1  0  0  0
 34 63  1  0  0  0
 34 64  1  0  0  0
 34 65  1  0  0  0
 68 69  1  0  0  0
M  CHG  1  68   1
M  END
> <LID>
L022235

> <PC_CID>
10298976

> <Names>


> <CAS_Numbers>


$$$$
3345
                    3D
 Structure written by MMmdl.
 54 56  0  0  1  0            999 V2000
   -5.0360   -1.0273   -0.3236 O   0  0  0  0  0  0
   -3.1368    0.1418    0.0945 N   0  0  0  0  0  0
   -1.6630    0.2672    0.2323 C   0  0  0  0  0  0
   -1.0206   -0.7154    1.2335 C   0  0  0  0  0  0
   -0.8617    0.3033   -1.0850 C   0  0  0  0  0  0
    0.4613   -0.3589    1.4500 C   0  0  0  0  0  0
    0.6101    0.6461   -0.7966 C   0  0  0  0  0  0
    2.6652   -0.1157    0.3704 C   0  0  0  0  0  0
    3.5099   -0.6290   -0.8091 C   0  0  0  0  0  0
   -3.8971    1.2066    0.6750 C   0  0  0  0  0  0
   -3.8147   -0.9102   -0.4549 C   0  0  0  0  0  0
    4.9955   -0.4571   -0.5574 C   0  0  0  0  0  0
   -3.0906   -1.9882   -1.2839 C   0  0  0  0  0  0
   -4.7746    1.9772   -0.1241 C   0  0  0  0  0  0
   -3.7602    1.5191    2.0473 C   0  0  0  0  0  0
   -3.9402   -3.2442   -1.5432 C   0  0  0  0  0  0
    5.7400   -1.4987    0.0356 C   0  0  0  0  0  0
    5.6388    0.7483   -0.9098 C   0  0  0  0  0  0
   -5.5100    3.0356    0.4433 C   0  0  0  0  0  0
   -4.4967    2.5781    2.6126 C   0  0  0  0  0  0
   -5.3719    3.3359    1.8116 C   0  0  0  0  0  0
    7.1188   -1.3360    0.2733 C   0  0  0  0  0  0
    7.0176    0.9101   -0.6717 C   0  0  0  0  0  0
    7.7578   -0.1319   -0.0803 C   0  0  0  0  0  0
   -1.4932    1.2570    0.6612 H   0  0  0  0  0  0
   -1.0878   -1.7475    0.8994 H   0  0  0  0  0  0
   -1.5430   -0.6771    2.1893 H   0  0  0  0  0  0
   -1.2880    1.0437   -1.7631 H   0  0  0  0  0  0
   -0.8814   -0.6488   -1.6082 H   0  0  0  0  0  0
    0.5474    0.6089    1.9472 H   0  0  0  0  0  0
    0.9080   -1.0965    2.1179 H   0  0  0  0  0  0
    1.1596    0.6408   -1.7371 H   0  0  0  0  0  0
    0.6903    1.6572   -0.3940 H   0  0  0  0  0  0
    2.8654    0.9398    0.5617 H   0  0  0  0  0  0
    2.9809   -0.6548    1.2649 H   0  0  0  0  0  0
    3.2992   -1.6841   -0.9896 H   0  0  0  0  0  0
    3.2593   -0.1049   -1.7311 H   0  0  0  0  0  0
   -2.8199   -1.5523   -2.2455 H   0  0  0  0  0  0
   -2.1742   -2.3108   -0.8023 H   0  0  0  0  0  0
   -4.8857    1.7592   -1.1765 H   0  0  0  0  0  0
   -3.0968    0.9463    2.6771 H   0  0  0  0  0  0
   -3.3746   -3.9794   -2.1160 H   0  0  0  0  0  0
   -4.2446   -3.7184   -0.6094 H   0  0  0  0  0  0
   -4.8403   -3.0098   -2.1129 H   0  0  0  0  0  0
    5.2571   -2.4250    0.3111 H   0  0  0  0  0  0
    5.0776    1.5527   -1.3626 H   0  0  0  0  0  0
   -6.1799    3.6179   -0.1722 H   0  0  0  0  0  0
   -4.3907    2.8088    3.6624 H   0  0  0  0  0  0
   -5.9364    4.1476    2.2464 H   0  0  0  0  0  0
    7.6865   -2.1350    0.7272 H   0  0  0  0  0  0
    7.5077    1.8338   -0.9426 H   0  0  0  0  0  0
    8.8151   -0.0075    0.1021 H   0  0  0  0  0  0
    1.2089   -0.3232    0.1634 N   0  3  0  0  0  0
    1.1081   -1.2424   -0.2432 H   0  0  0  0  0  0
  1 11  2  0  0  0
  2  3  1  0  0  0
  2 10  1  0  0  0
  2 11  1  0  0  0
  3  4  1  0  0  0
  3  5  1  0  0  0
  3 25  1  0  0  0
  4  6  1  0  0  0
  4 26  1  0  0  0
  4 27  1  0  0  0
  5  7  1  0  0  0
  5 28  1  0  0  0
  5 29  1  0  0  0
  6 30  1  0  0  0
  6 31  1  0  0  0
  6 53  1  0  0  0
  7 32  1  0  0  0
  7 33  1  0  0  0
  7 53  1  0  0  0
  8  9  1  0  0  0
  8 34  1  0  0  0
  8 35  1  0  0  0
  8 53  1  0  0  0
  9 12  1  0  0  0
  9 36  1  0  0  0
  9 37  1  0  0  0
 10 14  2  0  0  0
 10 15  1  0  0  0
 11 13  1  0  0  0
 12 17  2  0  0  0
 12 18  1  0  0  0
 13 16  1  0  0  0
 13 38  1  0  0  0
 13 39  1  0  0  0
 14 19  1  0  0  0
 14 40  1  0  0  0
 15 20  2  0  0  0
 15 41  1  0  0  0
 16 42  1  0  0  0
 16 43  1  0  0  0
 16 44  1  0  0  0
 17 22  1  0  0  0
 17 45  1  0  0  0
 18 23  2  0  0  0
 18 46  1  0  0  0
 19 21  2  0  0  0
 19 47  1  0  0  0
 20 21  1  0  0  0
 20 48  1  0  0  0
 21 49  1  0  0  0
 22 24  2  0  0  0
 22 50  1  0  0  0
 23 24  1  0  0  0
 23 51  1  0  0  0
 24 52  1  0  0  0
 53 54  1  0  0  0
M  CHG  1  53   1
M  END
> <LID>
L001275

> <PC_CID>
3345

> <Names>
Fentanyl

> <CAS_Numbers>
437-38-7;80832-90-2;990-73-8

$$$$
11246669
                    3D
 Structure written by MMmdl.
 59 62  0  0  1  0            999 V2000
    5.1893   -0.1921   -0.1755 O   0  0  0  0  0  0
    4.4542    0.0287   -2.3121 O   0  0  0  0  0  0
    2.9966    0.3005   -0.4934 N   0  0  0  0  0  0
   -1.1067    2.1383    0.2150 N   0  0  0  0  0  0
    0.2086    1.9224    2.0050 N   0  0  0  0  0  0
    0.2020   -0.1082    0.5594 C   0  0  0  0  0  0
    1.4954   -0.4976    1.3422 C   0  0  0  0  0  0
    0.6382   -0.2790   -0.9198 C   0  0  0  0  0  0
    2.7616    0.3061    0.9615 C   0  0  0  0  0  0
    1.8217    0.6232   -1.3099 C   0  0  0  0  0  0
   -0.2281    1.3311    0.8887 C   0  0  0  0  0  0
   -0.8916   -1.1067    0.9956 C   0  0  0  0  0  0
   -1.8975    2.0050   -1.0180 C   0  0  2  0  0  0
   -1.4893   -0.9738    2.2735 C   0  0  0  0  0  0
   -1.2867   -2.2035    0.1876 C   0  0  0  0  0  0
   -1.1539    3.3280    0.9415 C   0  0  0  0  0  0
    4.2356    0.0410   -1.0990 C   0  0  0  0  0  0
   -0.3550    3.1822    2.0400 C   0  0  0  0  0  0
   -2.7789    0.7599   -1.1070 C   0  0  0  0  0  0
   -1.1281    2.4249   -2.2885 C   0  0  0  0  0  0
   -2.4565   -1.8919    2.7246 C   0  0  0  0  0  0
   -2.2482   -3.1271    0.6416 C   0  0  0  0  0  0
   -2.8369   -2.9714    1.9087 C   0  0  0  0  0  0
   -2.7753   -0.0826   -2.2436 C   0  0  0  0  0  0
   -3.6969    0.4975   -0.0654 C   0  0  0  0  0  0
    6.5185   -0.4734   -0.5825 C   0  0  0  0  0  0
   -3.6610   -1.1748   -2.3257 C   0  0  0  0  0  0
   -4.5863   -0.5908   -0.1496 C   0  0  0  0  0  0
   -4.5684   -1.4285   -1.2802 C   0  0  0  0  0  0
    7.3873   -0.7020    0.6567 C   0  0  0  0  0  0
    1.3352   -0.4239    2.4186 H   0  0  0  0  0  0
    1.7109   -1.5527    1.1645 H   0  0  0  0  0  0
    0.9669   -1.3036   -1.0975 H   0  0  0  0  0  0
   -0.1960   -0.1378   -1.5936 H   0  0  0  0  0  0
    3.5893   -0.1016    1.5410 H   0  0  0  0  0  0
    2.6729    1.3448    1.2782 H   0  0  0  0  0  0
    1.5764    1.6758   -1.1670 H   0  0  0  0  0  0
    2.0153    0.5020   -2.3764 H   0  0  0  0  0  0
   -2.6610    2.7812   -0.9404 H   0  0  0  0  0  0
   -1.2039   -0.1661    2.9304 H   0  0  0  0  0  0
   -0.8707   -2.3667   -0.7933 H   0  0  0  0  0  0
   -1.7556    4.1693    0.6300 H   0  0  0  0  0  0
   -0.1436    3.8761    2.8401 H   0  0  0  0  0  0
   -1.8165    2.5836   -3.1191 H   0  0  0  0  0  0
   -0.6041    3.3673   -2.1265 H   0  0  0  0  0  0
   -0.3894    1.7032   -2.6223 H   0  0  0  0  0  0
   -2.9014   -1.7702    3.7011 H   0  0  0  0  0  0
   -2.5389   -3.9543    0.0110 H   0  0  0  0  0  0
   -3.5771   -3.6781    2.2537 H   0  0  0  0  0  0
   -2.1030    0.0994   -3.0682 H   0  0  0  0  0  0
   -3.7267    1.1394    0.8030 H   0  0  0  0  0  0
    6.5321   -1.3597   -1.2184 H   0  0  0  0  0  0
    6.9113    0.3594   -1.1675 H   0  0  0  0  0  0
   -3.6486   -1.8147   -3.1956 H   0  0  0  0  0  0
   -5.2809   -0.7833    0.6546 H   0  0  0  0  0  0
   -5.2484   -2.2650   -1.3444 H   0  0  0  0  0  0
    8.4168   -0.9208    0.3732 H   0  0  0  0  0  0
    7.3970    0.1805    1.2969 H   0  0  0  0  0  0
    7.0169   -1.5413    1.2458 H   0  0  0  0  0  0
  1 17  1  0  0  0
  1 26  1  0  0  0
  2 17  2  0  0  0
  3  9  1  0  0  0
  3 10  1  0  0  0
  3 17  1  0  0  0
  4 11  1  0  0  0
  4 13  1  0  0  0
  4 16  1  0  0  0
  5 11  2  0  0  0
  5 18  1  0  0  0
  6  7  1  0  0  0
  6  8  1  0  0  0
  6 11  1  0  0  0
  6 12  1  0  0  0
  7  9  1  0  0  0
  7 31  1  0  0  0
  7 32  1  0  0  0
  8 10  1  0  0  0
  8 33  1  0  0  0
  8 34  1  0  0  0
  9 35  1  0  0  0
  9 36  1  0  0  0
 10 37  1  0  0  0
 10 38  1  0  0  0
 12 14  2  0  0  0
 12 15  1  0  0  0
 13 19  1  0  0  0
 13 20  1  0  0  0
 13 39  1  0  0  0
 14 21  1  0  0  0
 14 40  1  0  0  0
 15 22  2  0  0  0
 15 41  1  0  0  0
 16 18  2  0  0  0
 16 42  1  0  0  0
 18 43  1  0  0  0
 19 24  2  0  0  0
 19 25  1  0  0  0
 20 44  1  0  0  0
 20 45  1  0  0  0
 20 46  1  0  0  0
 21 23  2  0  0  0
 21 47  1  0  0  0
 22 23  1  0  0  0
 22 48  1  0  0  0
 23 49  1  0  0  0
 24 27  1  0  0  0
 24 50  1  0  0  0
 25 28  2  0  0  0
 25 51  1  0  0  0
 26 30  1  0  0  0
 26 52  1  0  0  0
 26 53  1  0  0  0
 27 29  2  0  0  0
 27 54  1  0  0  0
 28 29  1  0  0  0
 28 55  1  0  0  0
 29 56  1  0  0  0
 30 57  1  0  0  0
 30 58  1  0  0  0
 30 59  1  0  0  0
M  END
> <LID>
L022157

> <PC_CID>
11246669

> <Names>


> <CAS_Numbers>


$$$$
10030466
                    3D
 Structure written by MMmdl.
 80 84  0  0  1  0            999 V2000
    2.5280    1.8822   -0.0775 O   0  0  0  0  0  0
    6.5367    4.2986    0.5142 O   0  0  0  0  0  0
    7.9392    2.9495    1.7276 O   0  0  0  0  0  0
    3.4416   -1.5510   -0.0558 N   0  0  0  0  0  0
    4.3896    0.5748   -0.1580 N   0  0  0  0  0  0
   -4.3046    3.0347   -0.9120 N   0  0  0  0  0  0
    2.3435   -0.5613   -0.0199 C   0  0  0  0  0  0
    1.5363   -0.6319    1.3099 C   0  0  0  0  0  0
    1.3991   -0.6902   -1.2513 C   0  0  0  0  0  0
    0.2490    0.2161    1.3031 C   0  0  0  0  0  0
    0.1184    0.1614   -1.1468 C   0  0  0  0  0  0
    3.0791    0.7815   -0.0897 C   0  0  0  0  0  0
    4.7198   -0.8335   -0.1430 C   0  0  0  0  0  0
   -1.9234    0.5808    0.1996 C   0  0  0  0  0  0
    3.3853   -2.9200   -0.0203 C   0  0  0  0  0  0
    5.4321    1.5944   -0.2114 C   0  0  0  0  0  0
   -2.9959   -0.1159   -0.6705 C   0  0  0  0  0  0
   -4.4422    0.4324   -0.5053 C   0  0  0  0  0  0
    5.7310    2.1516    1.1909 C   0  0  0  0  0  0
    4.5822   -3.6849   -0.0648 C   0  0  0  0  0  0
    2.1639   -3.6397    0.0609 C   0  0  0  0  0  0
   -5.3422   -0.2463   -1.5510 C   0  0  0  0  0  0
   -5.0447    0.2027    0.8949 C   0  0  0  0  0  0
    4.5605   -5.0924   -0.0302 C   0  0  0  0  0  0
    2.1389   -5.0473    0.0957 C   0  0  0  0  0  0
    6.8630    3.1756    1.1745 C   0  0  0  0  0  0
   -4.3677    1.8922   -0.7346 C   0  0  0  0  0  0
    3.3375   -5.7775    0.0502 C   0  0  0  0  0  0
   -5.6539   -1.6207   -1.4194 C   0  0  0  0  0  0
   -6.1536    0.9813    1.3053 C   0  0  0  0  0  0
   -5.8636    0.4602   -2.6630 C   0  0  0  0  0  0
   -4.5579   -0.7914    1.7809 C   0  0  0  0  0  0
   -6.4706   -2.2706   -2.3642 C   0  0  0  0  0  0
   -6.7435    0.7926    2.5696 C   0  0  0  0  0  0
   -6.6805   -0.1899   -3.6084 C   0  0  0  0  0  0
   -5.1473   -0.9803    3.0458 C   0  0  0  0  0  0
   -6.9859   -1.5549   -3.4597 C   0  0  0  0  0  0
   -6.2383   -0.1868    3.4431 C   0  0  0  0  0  0
    7.4833    5.3488    0.4079 C   0  0  0  0  0  0
    6.8752    6.4977   -0.4001 C   0  0  0  0  0  0
    2.1653   -0.3129    2.1428 H   0  0  0  0  0  0
    1.2578   -1.6512    1.5608 H   0  0  0  0  0  0
    1.0972   -1.7190   -1.4242 H   0  0  0  0  0  0
    1.9353   -0.4118   -2.1603 H   0  0  0  0  0  0
   -0.3030    0.0094    2.2209 H   0  0  0  0  0  0
    0.4754    1.2824    1.3202 H   0  0  0  0  0  0
    0.3437    1.2245   -1.2333 H   0  0  0  0  0  0
   -0.5184   -0.0800   -1.9968 H   0  0  0  0  0  0
    5.2539   -1.0964   -1.0576 H   0  0  0  0  0  0
    5.3529   -1.0533    0.7183 H   0  0  0  0  0  0
   -2.2605    0.5824    1.2357 H   0  0  0  0  0  0
   -1.8075    1.6291   -0.0790 H   0  0  0  0  0  0
    6.3349    1.1604   -0.6439 H   0  0  0  0  0  0
    5.1215    2.3945   -0.8858 H   0  0  0  0  0  0
   -2.7193    0.0123   -1.7172 H   0  0  0  0  0  0
   -2.9703   -1.1928   -0.5043 H   0  0  0  0  0  0
    4.8405    2.6226    1.6081 H   0  0  0  0  0  0
    6.0044    1.3392    1.8649 H   0  0  0  0  0  0
    5.5517   -3.2154   -0.1268 H   0  0  0  0  0  0
    1.2088   -3.1465    0.0993 H   0  0  0  0  0  0
    5.4869   -5.6466   -0.0656 H   0  0  0  0  0  0
    1.1946   -5.5679    0.1576 H   0  0  0  0  0  0
    3.3189   -6.8572    0.0768 H   0  0  0  0  0  0
   -5.2665   -2.1894   -0.5873 H   0  0  0  0  0  0
   -6.5673    1.7310    0.6467 H   0  0  0  0  0  0
   -5.6498    1.5069   -2.8162 H   0  0  0  0  0  0
   -3.7317   -1.4296    1.5117 H   0  0  0  0  0  0
   -6.7013   -3.3194   -2.2481 H   0  0  0  0  0  0
   -7.5871    1.3979    2.8673 H   0  0  0  0  0  0
   -7.0730    0.3608   -4.4506 H   0  0  0  0  0  0
   -4.7637   -1.7394    3.7116 H   0  0  0  0  0  0
   -7.6126   -2.0521   -4.1854 H   0  0  0  0  0  0
   -6.6911   -0.3336    4.4127 H   0  0  0  0  0  0
    7.7636    5.6972    1.4029 H   0  0  0  0  0  0
    8.3878    4.9848   -0.0815 H   0  0  0  0  0  0
    7.5836    7.3203   -0.4976 H   0  0  0  0  0  0
    6.6029    6.1702   -1.4038 H   0  0  0  0  0  0
    5.9777    6.8849    0.0829 H   0  0  0  0  0  0
   -0.6030   -0.0967    0.1272 N   0  3  0  0  0  0
   -0.7874   -1.0889    0.1693 H   0  0  0  0  0  0
  1 12  2  0  0  0
  2 26  1  0  0  0
  2 39  1  0  0  0
  3 26  2  0  0  0
  4  7  1  0  0  0
  4 13  1  0  0  0
  4 15  1  0  0  0
  5 12  1  0  0  0
  5 13  1  0  0  0
  5 16  1  0  0  0
  6 27  3  0  0  0
  7  8  1  0  0  0
  7  9  1  0  0  0
  7 12  1  0  0  0
  8 10  1  0  0  0
  8 41  1  0  0  0
  8 42  1  0  0  0
  9 11  1  0  0  0
  9 43  1  0  0  0
  9 44  1  0  0  0
 10 45  1  0  0  0
 10 46  1  0  0  0
 10 79  1  0  0  0
 11 47  1  0  0  0
 11 48  1  0  0  0
 11 79  1  0  0  0
 13 49  1  0  0  0
 13 50  1  0  0  0
 14 17  1  0  0  0
 14 51  1  0  0  0
 14 52  1  0  0  0
 14 79  1  0  0  0
 15 20  2  0  0  0
 15 21  1  0  0  0
 16 19  1  0  0  0
 16 53  1  0  0  0
 16 54  1  0  0  0
 17 18  1  0  0  0
 17 55  1  0  0  0
 17 56  1  0  0  0
 18 22  1  0  0  0
 18 23  1  0  0  0
 18 27  1  0  0  0
 19 26  1  0  0  0
 19 57  1  0  0  0
 19 58  1  0  0  0
 20 24  1  0  0  0
 20 59  1  0  0  0
 21 25  2  0  0  0
 21 60  1  0  0  0
 22 29  2  0  0  0
 22 31  1  0  0  0
 23 30  2  0  0  0
 23 32  1  0  0  0
 24 28  2  0  0  0
 24 61  1  0  0  0
 25 28  1  0  0  0
 25 62  1  0  0  0
 28 63  1  0  0  0
 29 33  1  0  0  0
 29 64  1  0  0  0
 30 34  1  0  0  0
 30 65  1  0  0  0
 31 35  2  0  0  0
 31 66  1  0  0  0
 32 36  2  0  0  0
 32 67  1  0  0  0
 33 37  2  0  0  0
 33 68  1  0  0  0
 34 38  2  0  0  0
 34 69  1  0  0  0
 35 37  1  0  0  0
 35 70  1  0  0  0
 36 38  1  0  0  0
 36 71  1  0  0  0
 37 72  1  0  0  0
 38 73  1  0  0  0
 39 40  1  0  0  0
 39 74  1  0  0  0
 39 75  1  0  0  0
 40 76  1  0  0  0
 40 77  1  0  0  0
 40 78  1  0  0  0
 79 80  1  0  0  0
M  CHG  1  79   1
M  END
> <LID>
L022597

> <PC_CID>
10030466

> <Names>


> <CAS_Numbers>


$$$$
44213173
                    3D
 Structure written by MMmdl.
 62 68  0  0  1  0            999 V2000
    0.7171   -1.4905   -1.4538 O   0  0  0  0  0  0
    1.7866    2.8853   -1.0748 O   0  0  0  0  0  0
    0.8478   -4.0266    0.0621 O   0  0  0  0  0  0
   -4.5791    0.6678   -2.0190 O   0  0  0  0  0  0
   -1.7938    0.1380   -1.4066 N   0  0  0  0  0  0
   -4.9482    0.1492    0.1513 N   0  0  0  0  0  0
    1.9937    0.4533   -0.8821 C   0  0  1  0  0  0
    1.8628    1.8178   -0.1385 C   0  0  1  0  0  0
    3.1745    1.9853    0.6795 C   0  0  1  0  0  0
    0.7263   -0.0630   -1.6359 C   0  0  2  0  0  0
    3.2208    0.4840   -1.8306 C   0  0  0  0  0  0
    2.1597   -0.6416    0.1333 C   0  0  0  0  0  0
    0.5681    1.9495    0.7198 C   0  0  0  0  0  0
    3.3667    0.8438    1.7267 C   0  0  0  0  0  0
    4.5222    0.8670   -1.1027 C   0  0  0  0  0  0
   -0.5220    0.4679   -1.0094 C   0  0  0  0  0  0
    2.8713   -0.5525    1.3412 C   0  0  0  0  0  0
   -0.6302    1.3482    0.0265 C   0  0  0  0  0  0
    1.4423   -1.7329   -0.3215 C   0  0  0  0  0  0
   -2.0230    1.5676    0.2788 C   0  0  0  0  0  0
    5.5833    2.5842    0.3290 C   0  0  0  0  0  0
    2.9244   -1.7347    2.1097 C   0  0  0  0  0  0
    1.5171   -2.9058    0.4563 C   0  0  0  0  0  0
   -2.7170    0.7723   -0.6047 C   0  0  0  0  0  0
    2.2697   -2.9079    1.6573 C   0  0  0  0  0  0
   -2.5862    2.5164    1.3066 C   0  0  0  0  0  0
   -4.1552    0.5430   -0.8695 C   0  0  0  0  0  0
   -6.3805   -0.0999   -0.0116 C   0  0  0  0  0  0
   -4.5109   -0.2679    1.4850 C   0  0  0  0  0  0
   -6.8912   -0.5355    1.3623 C   0  0  0  0  0  0
   -5.6579   -1.1062    2.0471 C   0  0  0  0  0  0
    3.1332    2.9351    1.2154 H   0  0  0  0  0  0
    0.7458    0.1989   -2.6943 H   0  0  0  0  0  0
    3.0424    1.1956   -2.6377 H   0  0  0  0  0  0
    3.3500   -0.4840   -2.3170 H   0  0  0  0  0  0
    0.3697    2.9883    0.9865 H   0  0  0  0  0  0
    0.6728    1.4107    1.6608 H   0  0  0  0  0  0
    2.8113    1.1150    2.6248 H   0  0  0  0  0  0
    4.4019    0.7671    2.0554 H   0  0  0  0  0  0
    4.8772    0.0420   -0.4843 H   0  0  0  0  0  0
    5.3048    1.0529   -1.8393 H   0  0  0  0  0  0
    1.5320    3.6741   -0.6195 H   0  0  0  0  0  0
   -2.0231   -0.4933   -2.1612 H   0  0  0  0  0  0
    6.3042    2.8229   -0.4535 H   0  0  0  0  0  0
    5.4055    3.4960    0.8999 H   0  0  0  0  0  0
    6.0431    1.8485    0.9886 H   0  0  0  0  0  0
    3.4437   -1.7406    3.0568 H   0  0  0  0  0  0
    2.3152   -3.8055    2.2566 H   0  0  0  0  0  0
   -3.6451    2.7069    1.1313 H   0  0  0  0  0  0
   -2.4649    2.1043    2.3082 H   0  0  0  0  0  0
   -2.0641    3.4722    1.2644 H   0  0  0  0  0  0
    0.3724   -3.8974   -0.7446 H   0  0  0  0  0  0
   -6.5257   -0.8994   -0.7401 H   0  0  0  0  0  0
   -6.9063    0.7857   -0.3716 H   0  0  0  0  0  0
   -4.3656    0.6123    2.1093 H   0  0  0  0  0  0
   -3.5791   -0.8354    1.4666 H   0  0  0  0  0  0
   -7.7118   -1.2510    1.3016 H   0  0  0  0  0  0
   -7.2465    0.3353    1.9150 H   0  0  0  0  0  0
   -5.7194   -1.0651    3.1350 H   0  0  0  0  0  0
   -5.5274   -2.1498    1.7575 H   0  0  0  0  0  0
    4.3265    2.0807   -0.2715 N   0  3  2  0  0  0
    4.0408    2.7981   -0.9242 H   0  0  0  0  0  0
  1 10  1  0  0  0
  1 19  1  0  0  0
  2  8  1  0  0  0
  2 42  1  0  0  0
  3 23  1  0  0  0
  3 52  1  0  0  0
  4 27  2  0  0  0
  5 16  1  0  0  0
  5 24  1  0  0  0
  5 43  1  0  0  0
  6 27  1  0  0  0
  6 28  1  0  0  0
  6 29  1  0  0  0
  7  8  1  0  0  0
  7 10  1  0  0  0
  7 11  1  0  0  0
  7 12  1  0  0  0
  8  9  1  0  0  0
  8 13  1  0  0  0
  9 14  1  0  0  0
  9 32  1  0  0  0
  9 61  1  0  0  0
 10 16  1  0  0  0
 10 33  1  0  0  0
 11 15  1  0  0  0
 11 34  1  0  0  0
 11 35  1  0  0  0
 12 17  2  0  0  0
 12 19  1  0  0  0
 13 18  1  0  0  0
 13 36  1  0  0  0
 13 37  1  0  0  0
 14 17  1  0  0  0
 14 38  1  0  0  0
 14 39  1  0  0  0
 15 40  1  0  0  0
 15 41  1  0  0  0
 15 61  1  0  0  0
 16 18  2  0  0  0
 17 22  1  0  0  0
 18 20  1  0  0  0
 19 23  2  0  0  0
 20 24  2  0  0  0
 20 26  1  0  0  0
 21 44  1  0  0  0
 21 45  1  0  0  0
 21 46  1  0  0  0
 21 61  1  0  0  0
 22 25  2  0  0  0
 22 47  1  0  0  0
 23 25  1  0  0  0
 24 27  1  0  0  0
 25 48  1  0  0  0
 26 49  1  0  0  0
 26 50  1  0  0  0
 26 51  1  0  0  0
 28 30  1  0  0  0
 28 53  1  0  0  0
 28 54  1  0  0  0
 29 31  1  0  0  0
 29 55  1  0  0  0
 29 56  1  0  0  0
 30 31  1  0  0  0
 30 57  1  0  0  0
 30 58  1  0  0  0
 31 59  1  0  0  0
 31 60  1  0  0  0
 61 62  1  0  0  0
M  CHG  1  61   1
M  END
> <LID>
L014405

> <PC_CID>
44213173

> <Names>


> <CAS_Numbers>


$$$$
44213170
                    3D
 Structure written by MMmdl.
 70 75  0  0  1  0            999 V2000
    0.1433   -1.7249    1.3851 O   0  0  0  0  0  0
   -1.7552    2.3712    1.1384 O   0  0  0  0  0  0
    0.4359   -4.2185   -0.1778 O   0  0  0  0  0  0
    4.9299    1.5221    1.7730 O   0  0  0  0  0  0
    2.2958    0.3502    1.2768 N   0  0  0  0  0  0
    5.3481    0.8060   -0.3417 N   0  0  0  0  0  0
   -1.5007   -0.0523    0.9020 C   0  0  1  0  0  0
   -1.6623    1.3212    0.1841 C   0  0  1  0  0  0
   -3.0124    1.2457   -0.5824 C   0  0  1  0  0  0
   -0.1291   -0.3278    1.5973 C   0  0  2  0  0  0
   -2.6716   -0.2653    1.8952 C   0  0  0  0  0  0
   -1.4974   -1.1453   -0.1293 C   0  0  0  0  0  0
   -0.4521    1.7101   -0.7184 C   0  0  0  0  0  0
   -3.0297    0.1032   -1.6448 C   0  0  0  0  0  0
   -4.0497   -0.1312    1.2230 C   0  0  0  0  0  0
   -2.2614   -1.1775   -1.3079 C   0  0  0  0  0  0
    0.9692    0.4393    0.9360 C   0  0  0  0  0  0
    0.8662    1.3385   -0.0840 C   0  0  0  0  0  0
   -0.5679   -2.0858    0.2757 C   0  0  0  0  0  0
   -5.4805    1.3558   -0.1680 C   0  0  0  0  0  0
    2.1814    1.8199   -0.3847 C   0  0  0  0  0  0
   -2.1199   -2.3377   -2.0983 C   0  0  0  0  0  0
   -0.4497   -3.2408   -0.5232 C   0  0  0  0  0  0
    3.0487    1.1590    0.4544 C   0  0  0  0  0  0
   -1.2362   -3.3704   -1.6952 C   0  0  0  0  0  0
   -6.4523    1.9397    0.8712 C   0  0  0  0  0  0
    2.5174    2.8671   -1.4135 C   0  0  0  0  0  0
    4.5146    1.1954    0.6601 C   0  0  0  0  0  0
   -7.8224    2.2693    0.2684 C   0  0  0  0  0  0
    6.8019    0.7612   -0.1123 C   0  0  0  0  0  0
    4.9190    0.2469   -1.6365 C   0  0  0  0  0  0
    7.2264   -0.5107    0.6395 C   0  0  0  0  0  0
    5.2587    1.1644   -2.8239 C   0  0  0  0  0  0
   -3.1631    2.1941   -1.1006 H   0  0  0  0  0  0
   -0.1551   -0.0887    2.6611 H   0  0  0  0  0  0
   -2.6004    0.4583    2.7082 H   0  0  0  0  0  0
   -2.5947   -1.2453    2.3682 H   0  0  0  0  0  0
   -0.4667    2.7713   -0.9692 H   0  0  0  0  0  0
   -0.4910    1.1750   -1.6666 H   0  0  0  0  0  0
   -2.5773    0.4865   -2.5597 H   0  0  0  0  0  0
   -4.0472   -0.1637   -1.9284 H   0  0  0  0  0  0
   -4.2605   -1.0032    0.6032 H   0  0  0  0  0  0
   -4.8162   -0.1216    1.9972 H   0  0  0  0  0  0
   -1.6732    3.2000    0.6904 H   0  0  0  0  0  0
   -5.4031    2.0666   -0.9918 H   0  0  0  0  0  0
   -5.8838    0.4355   -0.5929 H   0  0  0  0  0  0
    2.6707   -0.2377    2.0078 H   0  0  0  0  0  0
   -2.6668   -2.4300   -3.0252 H   0  0  0  0  0  0
   -1.1344   -4.2520   -2.3110 H   0  0  0  0  0  0
   -6.5945    1.2421    1.6962 H   0  0  0  0  0  0
   -6.0261    2.8461    1.3030 H   0  0  0  0  0  0
    1.7749    3.6647   -1.4012 H   0  0  0  0  0  0
    3.4897    3.3154   -1.2099 H   0  0  0  0  0  0
    2.5297    2.4266   -2.4102 H   0  0  0  0  0  0
    0.9099   -4.0121    0.6136 H   0  0  0  0  0  0
   -8.4904    2.6819    1.0249 H   0  0  0  0  0  0
   -7.7357    3.0036   -0.5331 H   0  0  0  0  0  0
   -8.2972    1.3780   -0.1427 H   0  0  0  0  0  0
    7.3432    0.8022   -1.0565 H   0  0  0  0  0  0
    7.1268    1.6453    0.4390 H   0  0  0  0  0  0
    5.4119   -0.7152   -1.7809 H   0  0  0  0  0  0
    3.8552    0.0143   -1.6587 H   0  0  0  0  0  0
    8.3071   -0.5318    0.7805 H   0  0  0  0  0  0
    6.7659   -0.5675    1.6261 H   0  0  0  0  0  0
    6.9479   -1.4088    0.0878 H   0  0  0  0  0  0
    4.8051    0.7863   -3.7402 H   0  0  0  0  0  0
    4.8997    2.1801   -2.6722 H   0  0  0  0  0  0
    6.3322    1.2226   -3.0000 H   0  0  0  0  0  0
   -4.1312    1.1082    0.4046 N   0  3  2  0  0  0
   -3.9719    1.8686    1.0514 H   0  0  0  0  0  0
  1 10  1  0  0  0
  1 19  1  0  0  0
  2  8  1  0  0  0
  2 44  1  0  0  0
  3 23  1  0  0  0
  3 55  1  0  0  0
  4 28  2  0  0  0
  5 17  1  0  0  0
  5 24  1  0  0  0
  5 47  1  0  0  0
  6 28  1  0  0  0
  6 30  1  0  0  0
  6 31  1  0  0  0
  7  8  1  0  0  0
  7 10  1  0  0  0
  7 11  1  0  0  0
  7 12  1  0  0  0
  8  9  1  0  0  0
  8 13  1  0  0  0
  9 14  1  0  0  0
  9 34  1  0  0  0
  9 69  1  0  0  0
 10 17  1  0  0  0
 10 35  1  0  0  0
 11 15  1  0  0  0
 11 36  1  0  0  0
 11 37  1  0  0  0
 12 16  2  0  0  0
 12 19  1  0  0  0
 13 18  1  0  0  0
 13 38  1  0  0  0
 13 39  1  0  0  0
 14 16  1  0  0  0
 14 40  1  0  0  0
 14 41  1  0  0  0
 15 42  1  0  0  0
 15 43  1  0  0  0
 15 69  1  0  0  0
 16 22  1  0  0  0
 17 18  2  0  0  0
 18 21  1  0  0  0
 19 23  2  0  0  0
 20 26  1  0  0  0
 20 45  1  0  0  0
 20 46  1  0  0  0
 20 69  1  0  0  0
 21 24  2  0  0  0
 21 27  1  0  0  0
 22 25  2  0  0  0
 22 48  1  0  0  0
 23 25  1  0  0  0
 24 28  1  0  0  0
 25 49  1  0  0  0
 26 29  1  0  0  0
 26 50  1  0  0  0
 26 51  1  0  0  0
 27 52  1  0  0  0
 27 53  1  0  0  0
 27 54  1  0  0  0
 29 56  1  0  0  0
 29 57  1  0  0  0
 29 58  1  0  0  0
 30 32  1  0  0  0
 30 59  1  0  0  0
 30 60  1  0  0  0
 31 33  1  0  0  0
 31 61  1  0  0  0
 31 62  1  0  0  0
 32 63  1  0  0  0
 32 64  1  0  0  0
 32 65  1  0  0  0
 33 66  1  0  0  0
 33 67  1  0  0  0
 33 68  1  0  0  0
 69 70  1  0  0  0
M  CHG  1  69   1
M  END
> <LID>
L014402

> <PC_CID>
44213170

> <Names>


> <CAS_Numbers>


$$$$
44213171
                    3D
 Structure written by MMmdl.
 70 75  0  0  1  0            999 V2000
    1.2559   -0.7446   -2.2465 O   0  0  0  0  0  0
    1.7672    2.5293    0.8298 O   0  0  0  0  0  0
    1.9509   -3.5800   -2.7199 O   0  0  0  0  0  0
   -3.9135   -1.4854   -1.1123 O   0  0  0  0  0  0
   -1.4152   -0.0594   -1.0998 N   0  0  0  0  0  0
   -4.7210    0.1889    0.2217 N   0  0  0  0  0  0
    2.3279    0.6162   -0.5925 C   0  0  1  0  0  0
    2.1240    1.1531    0.8576 C   0  0  1  0  0  0
    3.5067    1.0265    1.5577 C   0  0  1  0  0  0
    1.0454    0.4481   -1.4693 C   0  0  2  0  0  0
    3.3870    1.4767   -1.3303 C   0  0  0  0  0  0
    2.7880   -0.8125   -0.5234 C   0  0  0  0  0  0
    0.9635    0.4577    1.6319 C   0  0  0  0  0  0
    4.0032   -0.4519    1.6204 C   0  0  0  0  0  0
    4.7172    1.5670   -0.5603 C   0  0  0  0  0  0
   -0.1587    0.2117   -0.6167 C   0  0  0  0  0  0
    3.6509   -1.3609    0.4399 C   0  0  0  0  0  0
   -0.2313    0.2077    0.7453 C   0  0  0  0  0  0
    2.1660   -1.4926   -1.5544 C   0  0  0  0  0  0
   -1.5824   -0.0864    1.1160 C   0  0  0  0  0  0
    5.7346    2.1741    1.6123 C   0  0  0  0  0  0
    3.9766   -2.7228    0.2665 C   0  0  0  0  0  0
    2.5129   -2.8491   -1.7152 C   0  0  0  0  0  0
   -2.2979   -0.2111   -0.0530 C   0  0  0  0  0  0
    3.4277   -3.4536   -0.8172 C   0  0  0  0  0  0
   -2.0970   -0.2367    2.5256 C   0  0  0  0  0  0
   -3.7129   -0.5378   -0.3505 C   0  0  0  0  0  0
   -6.1014   -0.3856    0.2158 C   0  0  0  0  0  0
   -4.4885    1.5719    0.7413 C   0  0  0  0  0  0
   -6.4739   -1.0217    1.5679 C   0  0  0  0  0  0
   -7.1989    0.5410   -0.3373 C   0  0  0  0  0  0
   -4.7660    2.6550   -0.3182 C   0  0  0  0  0  0
   -5.1441    1.8780    2.1000 C   0  0  0  0  0  0
    3.4163    1.3985    2.5796 H   0  0  0  0  0  0
    0.8750    1.3119   -2.1128 H   0  0  0  0  0  0
    2.9974    2.4835   -1.4857 H   0  0  0  0  0  0
    3.5734    1.0775   -2.3283 H   0  0  0  0  0  0
    0.6659    1.0319    2.5104 H   0  0  0  0  0  0
    1.2759   -0.5189    2.0000 H   0  0  0  0  0  0
    3.5534   -0.9204    2.4962 H   0  0  0  0  0  0
    5.0760   -0.5109    1.7967 H   0  0  0  0  0  0
    5.2675    0.6279   -0.6267 H   0  0  0  0  0  0
    5.3507    2.3236   -1.0248 H   0  0  0  0  0  0
    1.4816    2.7886    1.6933 H   0  0  0  0  0  0
   -1.6599   -0.1378   -2.0767 H   0  0  0  0  0  0
    6.2939    2.9871    1.1484 H   0  0  0  0  0  0
    5.5208    2.4684    2.6403 H   0  0  0  0  0  0
    6.3815    1.2973    1.6321 H   0  0  0  0  0  0
    4.6256   -3.2175    0.9741 H   0  0  0  0  0  0
    3.6822   -4.4966   -0.9369 H   0  0  0  0  0  0
   -1.3873   -0.8024    3.1292 H   0  0  0  0  0  0
   -2.2339    0.7428    2.9836 H   0  0  0  0  0  0
   -3.0513   -0.7634    2.5427 H   0  0  0  0  0  0
    1.3432   -3.0736   -3.2375 H   0  0  0  0  0  0
   -6.1441   -1.2248   -0.4785 H   0  0  0  0  0  0
   -3.4351    1.7131    0.9605 H   0  0  0  0  0  0
   -7.3680   -1.6375    1.4668 H   0  0  0  0  0  0
   -5.6753   -1.6686    1.9323 H   0  0  0  0  0  0
   -6.6881   -0.2853    2.3392 H   0  0  0  0  0  0
   -8.1340   -0.0075   -0.4541 H   0  0  0  0  0  0
   -7.4150    1.3856    0.3127 H   0  0  0  0  0  0
   -6.9308    0.9221   -1.3229 H   0  0  0  0  0  0
   -4.3570    3.6139    0.0012 H   0  0  0  0  0  0
   -4.2969    2.4057   -1.2705 H   0  0  0  0  0  0
   -5.8268    2.8145   -0.4973 H   0  0  0  0  0  0
   -6.2282    1.9437    2.0471 H   0  0  0  0  0  0
   -4.7930    2.8367    2.4826 H   0  0  0  0  0  0
   -4.8808    1.1252    2.8430 H   0  0  0  0  0  0
    4.4831    1.9223    0.8614 N   0  3  2  0  0  0
    4.0105    2.8155    0.8305 H   0  0  0  0  0  0
  1 10  1  0  0  0
  1 19  1  0  0  0
  2  8  1  0  0  0
  2 44  1  0  0  0
  3 23  1  0  0  0
  3 54  1  0  0  0
  4 27  2  0  0  0
  5 16  1  0  0  0
  5 24  1  0  0  0
  5 45  1  0  0  0
  6 27  1  0  0  0
  6 28  1  0  0  0
  6 29  1  0  0  0
  7  8  1  0  0  0
  7 10  1  0  0  0
  7 11  1  0  0  0
  7 12  1  0  0  0
  8  9  1  0  0  0
  8 13  1  0  0  0
  9 14  1  0  0  0
  9 34  1  0  0  0
  9 69  1  0  0  0
 10 16  1  0  0  0
 10 35  1  0  0  0
 11 15  1  0  0  0
 11 36  1  0  0  0
 11 37  1  0  0  0
 12 17  2  0  0  0
 12 19  1  0  0  0
 13 18  1  0  0  0
 13 38  1  0  0  0
 13 39  1  0  0  0
 14 17  1  0  0  0
 14 40  1  0  0  0
 14 41  1  0  0  0
 15 42  1  0  0  0
 15 43  1  0  0  0
 15 69  1  0  0  0
 16 18  2  0  0  0
 17 22  1  0  0  0
 18 20  1  0  0  0
 19 23  2  0  0  0
 20 24  2  0  0  0
 20 26  1  0  0  0
 21 46  1  0  0  0
 21 47  1  0  0  0
 21 48  1  0  0  0
 21 69  1  0  0  0
 22 25  2  0  0  0
 22 49  1  0  0  0
 23 25  1  0  0  0
 24 27  1  0  0  0
 25 50  1  0  0  0
 26 51  1  0  0  0
 26 52  1  0  0  0
 26 53  1  0  0  0
 28 30  1  0  0  0
 28 31  1  0  0  0
 28 55  1  0  0  0
 29 32  1  0  0  0
 29 33  1  0  0  0
 29 56  1  0  0  0
 30 57  1  0  0  0
 30 58  1  0  0  0
 30 59  1  0  0  0
 31 60  1  0  0  0
 31 61  1  0  0  0
 31 62  1  0  0  0
 32 63  1  0  0  0
 32 64  1  0  0  0
 32 65  1  0  0  0
 33 66  1  0  0  0
 33 67  1  0  0  0
 33 68  1  0  0  0
 69 70  1  0  0  0
M  CHG  1  69   1
M  END
> <LID>
L014403

> <PC_CID>
44213171

> <Names>


> <CAS_Numbers>


$$$$
44213174
                    3D
 Structure written by MMmdl.
 63 68  0  0  1  0            999 V2000
   -0.8561    1.2279   -1.8501 O   0  0  0  0  0  0
   -1.7498    4.0371   -1.6148 O   0  0  0  0  0  0
    4.3455    1.8099   -0.4006 O   0  0  0  0  0  0
    1.8495    0.3457   -0.8942 N   0  0  0  0  0  0
    5.1228   -0.2393    0.2003 N   0  0  0  0  0  0
   -1.8671   -0.5766   -0.6400 C   0  0  1  0  0  0
   -1.6430   -1.4455    0.6252 C   0  0  2  0  0  0
   -3.0271   -1.6009    1.3032 C   0  0  1  0  0  0
   -0.5915   -0.1188   -1.4165 C   0  0  2  0  0  0
   -2.8293   -1.3315   -1.5900 C   0  0  0  0  0  0
   -2.4343    0.7504   -0.2344 C   0  0  0  0  0  0
   -0.5299   -0.9245    1.5741 C   0  0  0  0  0  0
   -3.6480   -0.2260    1.7077 C   0  0  0  0  0  0
   -4.1567   -1.7175   -0.9123 C   0  0  0  0  0  0
    0.5992   -0.0774   -0.5158 C   0  0  0  0  0  0
   -3.3532    0.9743    0.8034 C   0  0  0  0  0  0
    0.6649   -0.4307    0.7999 C   0  0  0  0  0  0
   -1.8378    1.7104   -1.0307 C   0  0  0  0  0  0
    2.0051   -0.2103    1.2523 C   0  0  0  0  0  0
   -5.1507   -2.8961    1.0213 C   0  0  0  0  0  0
   -3.7748    2.3106    0.9693 C   0  0  0  0  0  0
   -2.2801    3.0371   -0.8544 C   0  0  0  0  0  0
    2.7218    0.2372    0.1664 C   0  0  0  0  0  0
   -3.2581    3.3293    0.1293 C   0  0  0  0  0  0
    2.5004   -0.4130    2.6627 C   0  0  0  0  0  0
    4.1279    0.6577   -0.0235 C   0  0  0  0  0  0
    6.5334    0.1695    0.1345 C   0  0  0  0  0  0
    4.9182   -1.6831    0.3988 C   0  0  0  0  0  0
    7.0160    0.7198    1.4837 C   0  0  0  0  0  0
    4.7092   -2.4114   -0.9368 C   0  0  0  0  0  0
   -1.3026   -2.4267    0.2887 H   0  0  0  0  0  0
   -2.9045   -2.2022    2.2053 H   0  0  0  0  0  0
   -0.3789   -0.7651   -2.2689 H   0  0  0  0  0  0
   -2.3399   -2.2391   -1.9462 H   0  0  0  0  0  0
   -3.0354   -0.7330   -2.4786 H   0  0  0  0  0  0
   -0.2229   -1.7066    2.2689 H   0  0  0  0  0  0
   -0.8882   -0.0902    2.1767 H   0  0  0  0  0  0
   -3.2491    0.0434    2.6861 H   0  0  0  0  0  0
   -4.7242   -0.2941    1.8571 H   0  0  0  0  0  0
   -4.7858   -0.8382   -0.7697 H   0  0  0  0  0  0
   -4.7147   -2.3884   -1.5666 H   0  0  0  0  0  0
    2.0972    0.6835   -1.8134 H   0  0  0  0  0  0
   -5.6356   -3.6197    0.3653 H   0  0  0  0  0  0
   -4.9301   -3.4024    1.9616 H   0  0  0  0  0  0
   -5.8669   -2.0987    1.2190 H   0  0  0  0  0  0
   -4.4709    2.5640    1.7552 H   0  0  0  0  0  0
   -3.5855    4.3491    0.2692 H   0  0  0  0  0  0
    1.8548    0.1130    3.3660 H   0  0  0  0  0  0
    2.4931   -1.4728    2.9173 H   0  0  0  0  0  0
    3.5154   -0.0347    2.7857 H   0  0  0  0  0  0
   -1.0937    3.7217   -2.2179 H   0  0  0  0  0  0
    7.1598   -0.6746   -0.1573 H   0  0  0  0  0  0
    6.6887    0.9156   -0.6467 H   0  0  0  0  0  0
    5.7814   -2.1121    0.9097 H   0  0  0  0  0  0
    4.0818   -1.8896    1.0613 H   0  0  0  0  0  0
    8.0671    1.0039    1.4322 H   0  0  0  0  0  0
    6.4485    1.6033    1.7778 H   0  0  0  0  0  0
    6.9112   -0.0246    2.2736 H   0  0  0  0  0  0
    4.5942   -3.4836   -0.7778 H   0  0  0  0  0  0
    3.8145   -2.0566   -1.4490 H   0  0  0  0  0  0
    5.5588   -2.2644   -1.6043 H   0  0  0  0  0  0
   -3.9115   -2.3861    0.3899 N   0  3  2  0  0  0
   -3.3785   -3.2149    0.1674 H   0  0  0  0  0  0
  1  9  1  0  0  0
  1 18  1  0  0  0
  2 22  1  0  0  0
  2 51  1  0  0  0
  3 26  2  0  0  0
  4 15  1  0  0  0
  4 23  1  0  0  0
  4 42  1  0  0  0
  5 26  1  0  0  0
  5 27  1  0  0  0
  5 28  1  0  0  0
  6  7  1  0  0  0
  6  9  1  0  0  0
  6 10  1  0  0  0
  6 11  1  0  0  0
  7  8  1  0  0  0
  7 12  1  0  0  0
  7 31  1  0  0  0
  8 13  1  0  0  0
  8 32  1  0  0  0
  8 62  1  0  0  0
  9 15  1  0  0  0
  9 33  1  0  0  0
 10 14  1  0  0  0
 10 34  1  0  0  0
 10 35  1  0  0  0
 11 16  2  0  0  0
 11 18  1  0  0  0
 12 17  1  0  0  0
 12 36  1  0  0  0
 12 37  1  0  0  0
 13 16  1  0  0  0
 13 38  1  0  0  0
 13 39  1  0  0  0
 14 40  1  0  0  0
 14 41  1  0  0  0
 14 62  1  0  0  0
 15 17  2  0  0  0
 16 21  1  0  0  0
 17 19  1  0  0  0
 18 22  2  0  0  0
 19 23  2  0  0  0
 19 25  1  0  0  0
 20 43  1  0  0  0
 20 44  1  0  0  0
 20 45  1  0  0  0
 20 62  1  0  0  0
 21 24  2  0  0  0
 21 46  1  0  0  0
 22 24  1  0  0  0
 23 26  1  0  0  0
 24 47  1  0  0  0
 25 48  1  0  0  0
 25 49  1  0  0  0
 25 50  1  0  0  0
 27 29  1  0  0  0
 27 52  1  0  0  0
 27 53  1  0  0  0
 28 30  1  0  0  0
 28 54  1  0  0  0
 28 55  1  0  0  0
 29 56  1  0  0  0
 29 57  1  0  0  0
 29 58  1  0  0  0
 30 59  1  0  0  0
 30 60  1  0  0  0
 30 61  1  0  0  0
 62 63  1  0  0  0
M  CHG  1  62   1
M  END
> <LID>
L014406

> <PC_CID>
44213174

> <Names>


> <CAS_Numbers>


$$$$
44213175
                    3D
 Structure written by MMmdl.
 62 68  0  0  1  0            999 V2000
    1.0354    1.7225    1.5218 O   0  0  0  0  0  0
    1.1503    4.2350   -0.0339 O   0  0  0  0  0  0
   -4.1632   -0.6087    2.3753 O   0  0  0  0  0  0
   -6.5040   -0.3605   -1.9574 O   0  0  0  0  0  0
   -1.4438    0.0197    1.6251 N   0  0  0  0  0  0
   -4.6834   -0.1857    0.2074 N   0  0  0  0  0  0
    2.3311   -0.2181    0.9779 C   0  0  1  0  0  0
    2.1964   -1.5876    0.2627 C   0  0  2  0  0  0
    3.4899   -1.7795   -0.5678 C   0  0  1  0  0  0
    1.0757    0.3015    1.7478 C   0  0  2  0  0  0
    3.5537   -0.2775    1.9266 C   0  0  0  0  0  0
    2.4921    0.8622   -0.0487 C   0  0  0  0  0  0
    0.8888   -1.7603   -0.5567 C   0  0  0  0  0  0
    3.6906   -0.6471   -1.6246 C   0  0  0  0  0  0
    4.8515   -0.6812    1.2036 C   0  0  0  0  0  0
   -0.1789   -0.2800    1.1834 C   0  0  0  0  0  0
    3.2014    0.7565   -1.2558 C   0  0  0  0  0  0
   -0.2998   -1.1907    0.1753 C   0  0  0  0  0  0
    1.7633    1.9529    0.3882 C   0  0  0  0  0  0
   -1.6935   -1.4619   -0.0122 C   0  0  0  0  0  0
    5.8913   -2.4036   -0.2347 C   0  0  0  0  0  0
    3.2464    1.9266   -2.0432 C   0  0  0  0  0  0
    1.8296    3.1136   -0.4087 C   0  0  0  0  0  0
   -2.3769   -0.6668    0.8795 C   0  0  0  0  0  0
    2.5840    3.1025   -1.6088 C   0  0  0  0  0  0
   -2.2751   -2.4457   -0.9959 C   0  0  0  0  0  0
   -3.8118   -0.4914    1.2008 C   0  0  0  0  0  0
   -6.1350   -0.1551    0.4306 C   0  0  0  0  0  0
   -4.3229    0.2981   -1.1337 C   0  0  0  0  0  0
   -6.8620   -0.9090   -0.6962 C   0  0  0  0  0  0
   -5.1100   -0.4678   -2.2113 C   0  0  0  0  0  0
    2.1572   -2.3555    1.0378 H   0  0  0  0  0  0
    3.4250   -2.7335   -1.0932 H   0  0  0  0  0  0
    1.1305    0.0803    2.8144 H   0  0  0  0  0  0
    3.3547   -0.9991    2.7202 H   0  0  0  0  0  0
    3.6979    0.6830    2.4235 H   0  0  0  0  0  0
    0.7185   -2.8132   -0.7818 H   0  0  0  0  0  0
    0.9545   -1.2406   -1.5123 H   0  0  0  0  0  0
    3.1303   -0.9239   -2.5181 H   0  0  0  0  0  0
    4.7252   -0.5798   -1.9568 H   0  0  0  0  0  0
    5.2156    0.1370    0.5812 H   0  0  0  0  0  0
    5.6314   -0.8731    1.9414 H   0  0  0  0  0  0
   -1.6630    0.6613    2.3740 H   0  0  0  0  0  0
    6.6146   -2.6539    0.5420 H   0  0  0  0  0  0
    5.7036   -3.3094   -0.8120 H   0  0  0  0  0  0
    6.3538   -1.6663   -0.8906 H   0  0  0  0  0  0
    3.7625    1.9199   -2.9920 H   0  0  0  0  0  0
    2.6224    3.9905   -2.2227 H   0  0  0  0  0  0
   -3.2952   -2.7161   -0.7234 H   0  0  0  0  0  0
   -2.2830   -2.0183   -1.9985 H   0  0  0  0  0  0
   -1.6813   -3.3593   -1.0169 H   0  0  0  0  0  0
    0.6743    4.1147    0.7738 H   0  0  0  0  0  0
   -6.4643    0.8845    0.4573 H   0  0  0  0  0  0
   -6.4236   -0.5948    1.3864 H   0  0  0  0  0  0
   -3.2583    0.2455   -1.3524 H   0  0  0  0  0  0
   -4.5767    1.3576   -1.1881 H   0  0  0  0  0  0
   -7.9413   -0.8240   -0.5690 H   0  0  0  0  0  0
   -6.6214   -1.9731   -0.6688 H   0  0  0  0  0  0
   -4.8170   -1.5178   -2.2419 H   0  0  0  0  0  0
   -4.8992   -0.0512   -3.1963 H   0  0  0  0  0  0
    4.6413   -1.8962    0.3775 N   0  3  2  0  0  0
    4.3654   -2.6169    1.0295 H   0  0  0  0  0  0
  1 10  1  0  0  0
  1 19  1  0  0  0
  2 23  1  0  0  0
  2 52  1  0  0  0
  3 27  2  0  0  0
  4 30  1  0  0  0
  4 31  1  0  0  0
  5 16  1  0  0  0
  5 24  1  0  0  0
  5 43  1  0  0  0
  6 27  1  0  0  0
  6 28  1  0  0  0
  6 29  1  0  0  0
  7  8  1  0  0  0
  7 10  1  0  0  0
  7 11  1  0  0  0
  7 12  1  0  0  0
  8  9  1  0  0  0
  8 13  1  0  0  0
  8 32  1  0  0  0
  9 14  1  0  0  0
  9 33  1  0  0  0
  9 61  1  0  0  0
 10 16  1  0  0  0
 10 34  1  0  0  0
 11 15  1  0  0  0
 11 35  1  0  0  0
 11 36  1  0  0  0
 12 17  2  0  0  0
 12 19  1  0  0  0
 13 18  1  0  0  0
 13 37  1  0  0  0
 13 38  1  0  0  0
 14 17  1  0  0  0
 14 39  1  0  0  0
 14 40  1  0  0  0
 15 41  1  0  0  0
 15 42  1  0  0  0
 15 61  1  0  0  0
 16 18  2  0  0  0
 17 22  1  0  0  0
 18 20  1  0  0  0
 19 23  2  0  0  0
 20 24  2  0  0  0
 20 26  1  0  0  0
 21 44  1  0  0  0
 21 45  1  0  0  0
 21 46  1  0  0  0
 21 61  1  0  0  0
 22 25  2  0  0  0
 22 47  1  0  0  0
 23 25  1  0  0  0
 24 27  1  0  0  0
 25 48  1  0  0  0
 26 49  1  0  0  0
 26 50  1  0  0  0
 26 51  1  0  0  0
 28 30  1  0  0  0
 28 53  1  0  0  0
 28 54  1  0  0  0
 29 31  1  0  0  0
 29 55  1  0  0  0
 29 56  1  0  0  0
 30 57  1  0  0  0
 30 58  1  0  0  0
 31 59  1  0  0  0
 31 60  1  0  0  0
 61 62  1  0  0  0
M  CHG  1  61   1
M  END
> <LID>
L014407

> <PC_CID>
44213175

> <Names>


> <CAS_Numbers>


$$$$
22380654
                    3D
 Structure written by MMmdl.
 81 85  0  0  1  0            999 V2000
   -1.9179    3.7744    1.3535 O   0  0  0  0  0  0
    4.8918   -1.0316    1.2902 O   0  0  0  0  0  0
   -2.9719   -5.0698    0.7629 O   0  0  0  0  0  0
    2.9032   -0.4756    0.2489 N   0  0  0  0  0  0
    4.2321   -1.9288   -0.7065 N   0  0  0  0  0  0
   -0.8189   -4.9323    0.0325 N   0  0  0  0  0  0
    2.3648    0.4851    1.2238 C   0  0  0  0  0  0
    1.0432    0.0044    1.8527 C   0  0  0  0  0  0
    2.2062    1.8961    0.6274 C   0  0  0  0  0  0
    0.5036    1.0369    2.8568 C   0  0  0  0  0  0
    1.6373    2.8704    1.6716 C   0  0  0  0  0  0
   -0.3517    3.3494    3.0870 C   0  0  0  0  0  0
    2.2851   -0.8787   -0.9564 C   0  0  0  0  0  0
    4.0856   -1.1315    0.3673 C   0  0  0  0  0  0
    3.1305   -1.7960   -1.5476 C   0  0  0  0  0  0
   -1.0474    4.4389    2.2575 C   0  0  0  0  0  0
    1.0668   -0.5180   -1.5628 C   0  0  0  0  0  0
    2.8374   -2.4230   -2.7684 C   0  0  0  0  0  0
    0.7445   -1.1285   -2.7978 C   0  0  0  0  0  0
    1.6187   -2.0732   -3.3937 C   0  0  0  0  0  0
   -2.1288    4.3854    0.1413 C   0  0  0  0  0  0
   -2.1357    3.5845   -1.0243 C   0  0  0  0  0  0
   -1.8612    2.0927   -0.9290 C   0  0  0  0  0  0
   -2.3648    5.7755    0.0346 C   0  0  0  0  0  0
   -3.0783    1.2986   -0.4333 C   0  0  0  0  0  0
   -2.3754    4.1757   -2.2825 C   0  0  0  0  0  0
   -2.6010    6.3602   -1.2242 C   0  0  0  0  0  0
   -2.7679   -0.1729   -0.2290 C   0  0  0  0  0  0
   -2.6070    5.5606   -2.3823 C   0  0  0  0  0  0
   -2.7078   -0.7129    1.0730 C   0  0  0  0  0  0
   -2.5550   -1.0130   -1.3411 C   0  0  0  0  0  0
   -2.2327   -2.9254    0.1486 C   0  0  0  0  0  0
   -2.4515   -2.0852    1.2605 C   0  0  0  0  0  0
   -2.2867   -2.3826   -1.1538 C   0  0  0  0  0  0
   -2.0263   -4.3984    0.3489 C   0  0  0  0  0  0
   -0.6127   -6.3874    0.0458 C   0  0  0  0  0  0
    0.3997   -4.1477   -0.2138 C   0  0  0  0  0  0
   -1.0159   -7.0190   -1.2938 C   0  0  0  0  0  0
    1.0894   -3.7776    1.1066 C   0  0  0  0  0  0
    3.0807    0.5754    2.0431 H   0  0  0  0  0  0
    1.2006   -0.9472    2.3607 H   0  0  0  0  0  0
    0.2882   -0.1781    1.0896 H   0  0  0  0  0  0
    1.5496    1.8852   -0.2409 H   0  0  0  0  0  0
    3.1719    2.2599    0.2742 H   0  0  0  0  0  0
   -0.4597    0.6914    3.2344 H   0  0  0  0  0  0
    1.1716    1.1180    3.7159 H   0  0  0  0  0  0
    2.3503    3.0105    2.4858 H   0  0  0  0  0  0
    1.5006    3.8442    1.2027 H   0  0  0  0  0  0
   -1.1163    2.8369    3.6726 H   0  0  0  0  0  0
    0.3449    3.7874    3.8032 H   0  0  0  0  0  0
   -1.6261    5.0981    2.9053 H   0  0  0  0  0  0
   -0.3127    5.0568    1.7392 H   0  0  0  0  0  0
    5.0129   -2.5400   -0.8955 H   0  0  0  0  0  0
    0.3901    0.1913   -1.1160 H   0  0  0  0  0  0
    3.5122   -3.1404   -3.2117 H   0  0  0  0  0  0
   -0.1822   -0.8754   -3.2912 H   0  0  0  0  0  0
    1.3508   -2.5298   -4.3351 H   0  0  0  0  0  0
   -1.5413    1.7190   -1.9025 H   0  0  0  0  0  0
   -1.0184    1.9372   -0.2564 H   0  0  0  0  0  0
   -2.3781    6.4004    0.9153 H   0  0  0  0  0  0
   -3.4420    1.7177    0.5056 H   0  0  0  0  0  0
   -3.8988    1.3906   -1.1460 H   0  0  0  0  0  0
   -2.3798    3.5696   -3.1768 H   0  0  0  0  0  0
   -2.7827    7.4222   -1.3008 H   0  0  0  0  0  0
   -2.7900    6.0094   -3.3477 H   0  0  0  0  0  0
   -2.8737   -0.0809    1.9332 H   0  0  0  0  0  0
   -2.6045   -0.6105   -2.3423 H   0  0  0  0  0  0
   -2.4286   -2.4917    2.2615 H   0  0  0  0  0  0
   -2.1380   -3.0184   -2.0149 H   0  0  0  0  0  0
    0.4325   -6.6204    0.2542 H   0  0  0  0  0  0
   -1.1724   -6.8529    0.8589 H   0  0  0  0  0  0
    1.0902   -4.7215   -0.8335 H   0  0  0  0  0  0
    0.1968   -3.2484   -0.7912 H   0  0  0  0  0  0
   -0.8424   -8.0952   -1.2820 H   0  0  0  0  0  0
   -2.0729   -6.8568   -1.5071 H   0  0  0  0  0  0
   -0.4387   -6.5984   -2.1177 H   0  0  0  0  0  0
    2.0126   -3.2308    0.9245 H   0  0  0  0  0  0
    0.4480   -3.1511    1.7260 H   0  0  0  0  0  0
    1.3441   -4.6673    1.6830 H   0  0  0  0  0  0
    0.3489    2.3689    2.2185 N   0  3  0  0  0  0
   -0.2649    2.2240    1.4291 H   0  0  0  0  0  0
  1 16  1  0  0  0
  1 21  1  0  0  0
  2 14  2  0  0  0
  3 35  2  0  0  0
  4  7  1  0  0  0
  4 13  1  0  0  0
  4 14  1  0  0  0
  5 14  1  0  0  0
  5 15  1  0  0  0
  5 53  1  0  0  0
  6 35  1  0  0  0
  6 36  1  0  0  0
  6 37  1  0  0  0
  7  8  1  0  0  0
  7  9  1  0  0  0
  7 40  1  0  0  0
  8 10  1  0  0  0
  8 41  1  0  0  0
  8 42  1  0  0  0
  9 11  1  0  0  0
  9 43  1  0  0  0
  9 44  1  0  0  0
 10 45  1  0  0  0
 10 46  1  0  0  0
 10 80  1  0  0  0
 11 47  1  0  0  0
 11 48  1  0  0  0
 11 80  1  0  0  0
 12 16  1  0  0  0
 12 49  1  0  0  0
 12 50  1  0  0  0
 12 80  1  0  0  0
 13 15  1  0  0  0
 13 17  2  0  0  0
 15 18  2  0  0  0
 16 51  1  0  0  0
 16 52  1  0  0  0
 17 19  1  0  0  0
 17 54  1  0  0  0
 18 20  1  0  0  0
 18 55  1  0  0  0
 19 20  2  0  0  0
 19 56  1  0  0  0
 20 57  1  0  0  0
 21 22  1  0  0  0
 21 24  2  0  0  0
 22 23  1  0  0  0
 22 26  2  0  0  0
 23 25  1  0  0  0
 23 58  1  0  0  0
 23 59  1  0  0  0
 24 27  1  0  0  0
 24 60  1  0  0  0
 25 28  1  0  0  0
 25 61  1  0  0  0
 25 62  1  0  0  0
 26 29  1  0  0  0
 26 63  1  0  0  0
 27 29  2  0  0  0
 27 64  1  0  0  0
 28 30  2  0  0  0
 28 31  1  0  0  0
 29 65  1  0  0  0
 30 33  1  0  0  0
 30 66  1  0  0  0
 31 34  2  0  0  0
 31 67  1  0  0  0
 32 33  2  0  0  0
 32 34  1  0  0  0
 32 35  1  0  0  0
 33 68  1  0  0  0
 34 69  1  0  0  0
 36 38  1  0  0  0
 36 70  1  0  0  0
 36 71  1  0  0  0
 37 39  1  0  0  0
 37 72  1  0  0  0
 37 73  1  0  0  0
 38 74  1  0  0  0
 38 75  1  0  0  0
 38 76  1  0  0  0
 39 77  1  0  0  0
 39 78  1  0  0  0
 39 79  1  0  0  0
 80 81  1  0  0  0
M  CHG  1  80   1
M  END
> <LID>
L020703

> <PC_CID>
22380654

> <Names>


> <CAS_Numbers>


$$$$
21184567
                    3D
 Structure written by MMmdl.
 55 56  0  0  1  0            999 V2000
   -4.6891    1.3869   -1.5759 O   0  0  0  0  0  0
    4.2411   -3.6478   -1.6237 O   0  0  0  0  0  0
   -4.9167   -0.1901    0.0521 N   0  0  0  0  0  0
    1.6366    0.3810   -0.5949 C   0  0  0  0  0  0
    0.1580    0.4425   -0.6262 C   0  0  0  0  0  0
   -2.6845    0.5309   -0.6994 C   0  0  0  0  0  0
   -6.3841   -0.2076   -0.0394 C   0  0  0  0  0  0
   -4.3689   -1.0080    1.1469 C   0  0  0  0  0  0
   -4.1827    0.6043   -0.7709 C   0  0  0  0  0  0
    2.2772   -0.8783   -0.1783 C   0  0  0  0  0  0
    2.3744    1.4658   -0.9220 C   0  0  0  0  0  0
    3.8926    1.5866   -0.9064 C   0  0  0  0  0  0
   -0.5384    1.6239   -0.2787 C   0  0  0  0  0  0
   -0.5902   -0.6870   -1.0297 C   0  0  0  0  0  0
   -1.9452    1.6699   -0.3207 C   0  0  0  0  0  0
   -1.9967   -0.6430   -1.0734 C   0  0  0  0  0  0
   -6.8662   -1.2267   -1.0811 C   0  0  0  0  0  0
   -4.0739   -0.1619    2.3942 C   0  0  0  0  0  0
    2.9719   -1.6765   -1.1134 C   0  0  0  0  0  0
    2.1624   -1.3200    1.1570 C   0  0  0  0  0  0
    5.8009    2.3118    0.4613 C   0  0  0  0  0  0
    4.0004    3.9020   -0.0191 C   0  0  0  0  0  0
    3.5650   -2.8897   -0.7130 C   0  0  0  0  0  0
    2.7539   -2.5334    1.5585 C   0  0  0  0  0  0
    3.4577   -3.3178    0.6247 C   0  0  0  0  0  0
   -6.8211   -0.4463    0.9313 H   0  0  0  0  0  0
   -6.7724    0.7826   -0.2837 H   0  0  0  0  0  0
   -5.0787   -1.7929    1.4118 H   0  0  0  0  0  0
   -3.4750   -1.5491    0.8440 H   0  0  0  0  0  0
    1.8631    2.3645   -1.2335 H   0  0  0  0  0  0
    4.3517    0.6073   -0.7807 H   0  0  0  0  0  0
    4.2340    1.9623   -1.8719 H   0  0  0  0  0  0
   -0.0017    2.5069    0.0349 H   0  0  0  0  0  0
   -0.0887   -1.5990   -1.3192 H   0  0  0  0  0  0
   -2.4559    2.5836   -0.0523 H   0  0  0  0  0  0
   -2.5454   -1.5159   -1.3970 H   0  0  0  0  0  0
   -7.9550   -1.2446   -1.1299 H   0  0  0  0  0  0
   -6.4945   -0.9824   -2.0767 H   0  0  0  0  0  0
   -6.5283   -2.2336   -0.8343 H   0  0  0  0  0  0
   -3.7072   -0.7884    3.2074 H   0  0  0  0  0  0
   -3.3158    0.5956    2.1953 H   0  0  0  0  0  0
   -4.9715    0.3468    2.7469 H   0  0  0  0  0  0
    3.0512   -1.3560   -2.1422 H   0  0  0  0  0  0
    1.6192   -0.7268    1.8784 H   0  0  0  0  0  0
    6.1070    2.9263    1.3088 H   0  0  0  0  0  0
    6.0327    1.2749    0.7078 H   0  0  0  0  0  0
    6.3997    2.6001   -0.4039 H   0  0  0  0  0  0
    4.3532    4.5097    0.8150 H   0  0  0  0  0  0
    4.4502    4.2899   -0.9340 H   0  0  0  0  0  0
    2.9214    4.0407   -0.0822 H   0  0  0  0  0  0
    2.6654   -2.8640    2.5829 H   0  0  0  0  0  0
    3.9089   -4.2478    0.9383 H   0  0  0  0  0  0
    4.5913   -4.4461   -1.2588 H   0  0  0  0  0  0
    4.3564    2.4781    0.1860 N   0  3  0  0  0  0
    3.8774    2.1758    1.0227 H   0  0  0  0  0  0
  1  9  2  0  0  0
  2 23  1  0  0  0
  2 53  1  0  0  0
  3  7  1  0  0  0
  3  8  1  0  0  0
  3  9  1  0  0  0
  4  5  1  0  0  0
  4 10  1  0  0  0
  4 11  2  0  0  0
  5 13  2  0  0  0
  5 14  1  0  0  0
  6  9  1  0  0  0
  6 15  2  0  0  0
  6 16  1  0  0  0
  7 17  1  0  0  0
  7 26  1  0  0  0
  7 27  1  0  0  0
  8 18  1  0  0  0
  8 28  1  0  0  0
  8 29  1  0  0  0
 10 19  2  0  0  0
 10 20  1  0  0  0
 11 12  1  0  0  0
 11 30  1  0  0  0
 12 31  1  0  0  0
 12 32  1  0  0  0
 12 54  1  0  0  0
 13 15  1  0  0  0
 13 33  1  0  0  0
 14 16  2  0  0  0
 14 34  1  0  0  0
 15 35  1  0  0  0
 16 36  1  0  0  0
 17 37  1  0  0  0
 17 38  1  0  0  0
 17 39  1  0  0  0
 18 40  1  0  0  0
 18 41  1  0  0  0
 18 42  1  0  0  0
 19 23  1  0  0  0
 19 43  1  0  0  0
 20 24  2  0  0  0
 20 44  1  0  0  0
 21 45  1  0  0  0
 21 46  1  0  0  0
 21 47  1  0  0  0
 21 54  1  0  0  0
 22 48  1  0  0  0
 22 49  1  0  0  0
 22 50  1  0  0  0
 22 54  1  0  0  0
 23 25  2  0  0  0
 24 25  1  0  0  0
 24 51  1  0  0  0
 25 52  1  0  0  0
 54 55  1  0  0  0
M  CHG  1  54   1
M  END
> <LID>
L016379

> <PC_CID>
21184567

> <Names>


> <CAS_Numbers>


$$$$
12044080
                    3D
 Structure written by MMmdl.
 77 81  0  0  1  0            999 V2000
   -3.6082    1.5649   -3.5894 F   0  0  0  0  0  0
    5.0862    5.9793   -1.3769 O   0  0  0  0  0  0
   -2.3839   -6.4540    1.5317 O   0  0  0  0  0  0
    5.0762    3.9565   -0.2557 N   0  0  0  0  0  0
    6.9942    4.8984   -0.7300 N   0  0  0  0  0  0
   -3.8813   -6.2603   -0.1742 N   0  0  0  0  0  0
    3.6268    3.7241   -0.1631 C   0  0  0  0  0  0
    3.1294    3.6850    1.2933 C   0  0  0  0  0  0
    3.1849    2.4577   -0.9188 C   0  0  0  0  0  0
    1.6103    3.4504    1.3442 C   0  0  0  0  0  0
    1.6641    2.2582   -0.8063 C   0  0  0  0  0  0
   -0.2119    1.8892    0.7759 C   0  0  0  0  0  0
   -0.5117    0.3929    0.5546 C   0  0  0  0  0  0
    6.0924    3.1085    0.2399 C   0  0  0  0  0  0
   -1.9871    0.0194    0.8275 C   0  0  2  0  0  0
    5.6601    5.0344   -0.8387 C   0  0  0  0  0  0
    7.2957    3.7129   -0.0651 C   0  0  0  0  0  0
   -2.2355   -1.4853    0.7838 C   0  0  0  0  0  0
   -2.9818    0.7785   -0.0470 C   0  0  0  0  0  0
    6.0499    1.8769    0.9219 C   0  0  0  0  0  0
    8.5360    3.1522    0.2769 C   0  0  0  0  0  0
    7.2843    1.2855    1.2807 C   0  0  0  0  0  0
   -2.8845   -2.1190    1.8657 C   0  0  0  0  0  0
   -1.8288   -2.2622   -0.3239 C   0  0  0  0  0  0
    8.5146    1.9157    0.9620 C   0  0  0  0  0  0
   -2.8344    0.8214   -1.4522 C   0  0  0  0  0  0
   -4.0715    1.4484    0.5517 C   0  0  0  0  0  0
   -3.1264   -3.5060    1.8401 C   0  0  0  0  0  0
   -2.0712   -3.6489   -0.3501 C   0  0  0  0  0  0
   -2.7359   -4.2758    0.7251 C   0  0  0  0  0  0
   -3.7599    1.5276   -2.2445 C   0  0  0  0  0  0
   -4.9973    2.1544   -0.2410 C   0  0  0  0  0  0
   -4.8413    2.1950   -1.6394 C   0  0  0  0  0  0
   -2.9880   -5.7553    0.7170 C   0  0  0  0  0  0
   -4.1457   -7.7061   -0.2231 C   0  0  0  0  0  0
   -4.7445   -5.4562   -1.0561 C   0  0  0  0  0  0
   -5.1383   -8.1446    0.8651 C   0  0  0  0  0  0
   -4.2525   -5.4501   -2.5125 C   0  0  0  0  0  0
    3.1179    4.5633   -0.6415 H   0  0  0  0  0  0
    3.3726    4.6232    1.7937 H   0  0  0  0  0  0
    3.6288    2.9000    1.8587 H   0  0  0  0  0  0
    3.6882    1.5728   -0.5326 H   0  0  0  0  0  0
    3.4676    2.5353   -1.9694 H   0  0  0  0  0  0
    1.0823    4.3030    0.9137 H   0  0  0  0  0  0
    1.2987    3.3795    2.3871 H   0  0  0  0  0  0
    1.3944    1.3365   -1.3203 H   0  0  0  0  0  0
    1.1420    3.0670   -1.3202 H   0  0  0  0  0  0
   -0.5264    2.1459    1.7885 H   0  0  0  0  0  0
   -0.8019    2.5154    0.1050 H   0  0  0  0  0  0
   -0.2339    0.0993   -0.4561 H   0  0  0  0  0  0
    0.1234   -0.1913    1.2220 H   0  0  0  0  0  0
   -2.1805    0.3285    1.8560 H   0  0  0  0  0  0
    7.6910    5.5444   -1.0707 H   0  0  0  0  0  0
    5.1220    1.3870    1.1704 H   0  0  0  0  0  0
    9.4658    3.6423    0.0284 H   0  0  0  0  0  0
    7.2901    0.3409    1.8047 H   0  0  0  0  0  0
   -3.2021   -1.5447    2.7237 H   0  0  0  0  0  0
   -1.3255   -1.8044   -1.1617 H   0  0  0  0  0  0
   -2.0129    0.3141   -1.9345 H   0  0  0  0  0  0
   -4.2050    1.4235    1.6234 H   0  0  0  0  0  0
    9.4451    1.4461    1.2457 H   0  0  0  0  0  0
   -3.6216   -3.9756    2.6780 H   0  0  0  0  0  0
   -1.7327   -4.2289   -1.1952 H   0  0  0  0  0  0
   -5.8281    2.6643    0.2242 H   0  0  0  0  0  0
   -5.5510    2.7361   -2.2477 H   0  0  0  0  0  0
   -4.5453   -7.9838   -1.1987 H   0  0  0  0  0  0
   -3.2142   -8.2663   -0.1249 H   0  0  0  0  0  0
   -5.7543   -5.8678   -1.0278 H   0  0  0  0  0  0
   -4.8567   -4.4320   -0.7001 H   0  0  0  0  0  0
   -5.3358   -9.2145    0.7980 H   0  0  0  0  0  0
   -4.7517   -7.9439    1.8646 H   0  0  0  0  0  0
   -6.0917   -7.6255    0.7644 H   0  0  0  0  0  0
   -4.9157   -4.8512   -3.1369 H   0  0  0  0  0  0
   -3.2524   -5.0313   -2.6047 H   0  0  0  0  0  0
   -4.2289   -6.4549   -2.9339 H   0  0  0  0  0  0
    1.2294    2.2106    0.6166 N   0  3  0  0  0  0
    1.7405    1.4593    1.0578 H   0  0  0  0  0  0
  1 31  1  0  0  0
  2 16  2  0  0  0
  3 34  2  0  0  0
  4  7  1  0  0  0
  4 14  1  0  0  0
  4 16  1  0  0  0
  5 16  1  0  0  0
  5 17  1  0  0  0
  5 53  1  0  0  0
  6 34  1  0  0  0
  6 35  1  0  0  0
  6 36  1  0  0  0
  7  8  1  0  0  0
  7  9  1  0  0  0
  7 39  1  0  0  0
  8 10  1  0  0  0
  8 40  1  0  0  0
  8 41  1  0  0  0
  9 11  1  0  0  0
  9 42  1  0  0  0
  9 43  1  0  0  0
 10 44  1  0  0  0
 10 45  1  0  0  0
 10 76  1  0  0  0
 11 46  1  0  0  0
 11 47  1  0  0  0
 11 76  1  0  0  0
 12 13  1  0  0  0
 12 48  1  0  0  0
 12 49  1  0  0  0
 12 76  1  0  0  0
 13 15  1  0  0  0
 13 50  1  0  0  0
 13 51  1  0  0  0
 14 17  1  0  0  0
 14 20  2  0  0  0
 15 18  1  0  0  0
 15 19  1  0  0  0
 15 52  1  0  0  0
 17 21  2  0  0  0
 18 23  2  0  0  0
 18 24  1  0  0  0
 19 26  2  0  0  0
 19 27  1  0  0  0
 20 22  1  0  0  0
 20 54  1  0  0  0
 21 25  1  0  0  0
 21 55  1  0  0  0
 22 25  2  0  0  0
 22 56  1  0  0  0
 23 28  1  0  0  0
 23 57  1  0  0  0
 24 29  2  0  0  0
 24 58  1  0  0  0
 25 61  1  0  0  0
 26 31  1  0  0  0
 26 59  1  0  0  0
 27 32  2  0  0  0
 27 60  1  0  0  0
 28 30  2  0  0  0
 28 62  1  0  0  0
 29 30  1  0  0  0
 29 63  1  0  0  0
 30 34  1  0  0  0
 31 33  2  0  0  0
 32 33  1  0  0  0
 32 64  1  0  0  0
 33 65  1  0  0  0
 35 37  1  0  0  0
 35 66  1  0  0  0
 35 67  1  0  0  0
 36 38  1  0  0  0
 36 68  1  0  0  0
 36 69  1  0  0  0
 37 70  1  0  0  0
 37 71  1  0  0  0
 37 72  1  0  0  0
 38 73  1  0  0  0
 38 74  1  0  0  0
 38 75  1  0  0  0
 76 77  1  0  0  0
M  CHG  1  76   1
M  END
> <LID>
L020889

> <PC_CID>
12044080

> <Names>


> <CAS_Numbers>


$$$$
9892798
                    3D
 Structure written by MMmdl.
 73 76  0  0  1  0            999 V2000
    5.2021   -5.1598    0.7459 S   0  0  0  0  0  0
   -5.5110   -0.0870   -1.6416 O   0  0  0  0  0  0
    2.5698    6.3483   -0.7037 O   0  0  0  0  0  0
    1.2544    6.9071   -2.4768 O   0  0  0  0  0  0
   -5.6163   -1.8029   -0.1472 N   0  0  0  0  0  0
    0.7283    5.0975   -1.1195 N   0  0  0  0  0  0
    3.8361   -0.7785    0.1673 C   0  0  0  0  0  0
    2.1664   -2.5371   -0.2773 C   0  0  0  0  0  0
    2.9003   -0.1074    1.1873 C   0  0  0  0  0  0
    1.2011   -1.9083    0.7400 C   0  0  0  0  0  0
    1.4387   -0.4078    0.8719 C   0  0  0  0  0  0
    4.5566   -2.9107   -0.8344 C   0  0  0  0  0  0
    0.4764    0.5383    0.7180 C   0  0  0  0  0  0
   -0.9053    0.1867    0.3507 C   0  0  0  0  0  0
    0.7525    1.9717    0.9152 C   0  0  0  0  0  0
    4.5457   -4.3974   -0.6810 C   0  0  0  0  0  0
   -1.2030   -0.3003   -0.9404 C   0  0  0  0  0  0
   -1.9554    0.3865    1.2710 C   0  0  0  0  0  0
    0.6363    2.8688   -0.1680 C   0  0  0  0  0  0
    1.0902    2.4707    2.1918 C   0  0  0  0  0  0
    4.0516   -5.3301   -1.5575 C   0  0  0  0  0  0
   -2.5291   -0.6129   -1.2957 C   0  0  0  0  0  0
   -3.2820    0.0744    0.9171 C   0  0  0  0  0  0
   -3.5735   -0.4452   -0.3624 C   0  0  0  0  0  0
    0.8892    4.2449    0.0055 C   0  0  0  0  0  0
    1.3208    3.8464    2.3790 C   0  0  0  0  0  0
    4.1951   -6.6694   -1.0902 C   0  0  0  0  0  0
    4.7974   -6.7412    0.1377 C   0  0  0  0  0  0
    1.2158    4.7340    1.2916 C   0  0  0  0  0  0
   -4.9847   -0.7671   -0.7600 C   0  0  0  0  0  0
   -7.0035   -2.1404   -0.5002 C   0  0  0  0  0  0
   -4.9829   -2.7467    0.7896 C   0  0  0  0  0  0
   -7.0800   -2.9840   -1.7825 C   0  0  0  0  0  0
   -5.3767   -2.4772    2.2510 C   0  0  0  0  0  0
    1.4998    6.1914   -1.5063 C   0  0  0  0  0  0
    3.4843    7.4030   -0.9485 C   0  0  0  0  0  0
    4.8713   -0.6048    0.4639 H   0  0  0  0  0  0
    3.7069   -0.3174   -0.8135 H   0  0  0  0  0  0
    1.9447   -2.1658   -1.2792 H   0  0  0  0  0  0
    2.0018   -3.6146   -0.2968 H   0  0  0  0  0  0
    3.1127    0.9602    1.2038 H   0  0  0  0  0  0
    3.1172   -0.4794    2.1894 H   0  0  0  0  0  0
    1.3640   -2.3593    1.7197 H   0  0  0  0  0  0
    0.1749   -2.1530    0.4718 H   0  0  0  0  0  0
    4.3538   -2.6339   -1.8702 H   0  0  0  0  0  0
    5.5619   -2.5500   -0.6128 H   0  0  0  0  0  0
   -0.4116   -0.4347   -1.6633 H   0  0  0  0  0  0
   -1.7455    0.7848    2.2531 H   0  0  0  0  0  0
    0.3600    2.4939   -1.1432 H   0  0  0  0  0  0
    1.1657    1.7977    3.0336 H   0  0  0  0  0  0
    3.5945   -5.1010   -2.5091 H   0  0  0  0  0  0
   -2.7411   -0.9862   -2.2874 H   0  0  0  0  0  0
   -4.0745    0.2520    1.6281 H   0  0  0  0  0  0
    1.5698    4.2232    3.3601 H   0  0  0  0  0  0
    3.8566   -7.5207   -1.6625 H   0  0  0  0  0  0
    5.0280   -7.6221    0.7189 H   0  0  0  0  0  0
    1.3735    5.7891    1.4596 H   0  0  0  0  0  0
    0.0029    4.8490   -1.7760 H   0  0  0  0  0  0
   -7.4770   -2.6904    0.3134 H   0  0  0  0  0  0
   -7.5978   -1.2323   -0.6161 H   0  0  0  0  0  0
   -5.2873   -3.7601    0.5248 H   0  0  0  0  0  0
   -3.8969   -2.7541    0.6954 H   0  0  0  0  0  0
   -8.1140   -3.2398   -2.0142 H   0  0  0  0  0  0
   -6.6744   -2.4472   -2.6404 H   0  0  0  0  0  0
   -6.5245   -3.9162   -1.6775 H   0  0  0  0  0  0
   -4.8936   -3.1942    2.9150 H   0  0  0  0  0  0
   -5.0825   -1.4817    2.5773 H   0  0  0  0  0  0
   -6.4522   -2.5685    2.4020 H   0  0  0  0  0  0
    4.2816    7.3815   -0.2058 H   0  0  0  0  0  0
    3.9361    7.3046   -1.9363 H   0  0  0  0  0  0
    2.9866    8.3715   -0.8861 H   0  0  0  0  0  0
    3.5833   -2.2382    0.0616 N   0  3  1  0  0  0
    3.7443   -2.6185    0.9835 H   0  0  0  0  0  0
  1 16  1  0  0  0
  1 28  1  0  0  0
  2 30  2  0  0  0
  3 35  1  0  0  0
  3 36  1  0  0  0
  4 35  2  0  0  0
  5 30  1  0  0  0
  5 31  1  0  0  0
  5 32  1  0  0  0
  6 25  1  0  0  0
  6 35  1  0  0  0
  6 58  1  0  0  0
  7  9  1  0  0  0
  7 37  1  0  0  0
  7 38  1  0  0  0
  7 72  1  0  0  0
  8 10  1  0  0  0
  8 39  1  0  0  0
  8 40  1  0  0  0
  8 72  1  0  0  0
  9 11  1  0  0  0
  9 41  1  0  0  0
  9 42  1  0  0  0
 10 11  1  0  0  0
 10 43  1  0  0  0
 10 44  1  0  0  0
 11 13  2  0  0  0
 12 16  1  0  0  0
 12 45  1  0  0  0
 12 46  1  0  0  0
 12 72  1  0  0  0
 13 14  1  0  0  0
 13 15  1  0  0  0
 14 17  2  0  0  0
 14 18  1  0  0  0
 15 19  2  0  0  0
 15 20  1  0  0  0
 16 21  2  0  0  0
 17 22  1  0  0  0
 17 47  1  0  0  0
 18 23  2  0  0  0
 18 48  1  0  0  0
 19 25  1  0  0  0
 19 49  1  0  0  0
 20 26  2  0  0  0
 20 50  1  0  0  0
 21 27  1  0  0  0
 21 51  1  0  0  0
 22 24  2  0  0  0
 22 52  1  0  0  0
 23 24  1  0  0  0
 23 53  1  0  0  0
 24 30  1  0  0  0
 25 29  2  0  0  0
 26 29  1  0  0  0
 26 54  1  0  0  0
 27 28  2  0  0  0
 27 55  1  0  0  0
 28 56  1  0  0  0
 29 57  1  0  0  0
 31 33  1  0  0  0
 31 59  1  0  0  0
 31 60  1  0  0  0
 32 34  1  0  0  0
 32 61  1  0  0  0
 32 62  1  0  0  0
 33 63  1  0  0  0
 33 64  1  0  0  0
 33 65  1  0  0  0
 34 66  1  0  0  0
 34 67  1  0  0  0
 34 68  1  0  0  0
 36 69  1  0  0  0
 36 70  1  0  0  0
 36 71  1  0  0  0
 72 73  1  0  0  0
M  CHG  1  72   1
M  END
> <LID>
L023136

> <PC_CID>
9892798

> <Names>


> <CAS_Numbers>


$$$$
10414035
                    3D
 Structure written by MMmdl.
 76 80  0  0  1  0            999 V2000
    2.8244    1.2268    1.8379 O   0  0  0  0  0  0
    5.5606    2.2977    0.3606 O   0  0  0  0  0  0
    7.4250    0.9548    0.3790 O   0  0  0  0  0  0
    3.3505   -2.0032    0.4556 N   0  0  0  0  0  0
    4.5136   -0.2503    1.4555 N   0  0  0  0  0  0
    2.3811   -0.9286    0.7587 C   0  0  0  0  0  0
    1.2860   -1.3923    1.7638 C   0  0  0  0  0  0
    1.7398   -0.3410   -0.5330 C   0  0  0  0  0  0
    0.1290   -0.3873    1.9314 C   0  0  0  0  0  0
    0.5642    0.6190   -0.2639 C   0  0  0  0  0  0
    3.2472    0.1492    1.4193 C   0  0  0  0  0  0
    4.6838   -1.5735    0.8957 C   0  0  0  0  0  0
   -1.6803    0.8203    0.7727 C   0  0  0  0  0  0
    3.1459   -3.2222   -0.1365 C   0  0  0  0  0  0
    5.6563    0.5105    1.9530 C   0  0  0  0  0  0
   -2.6046    0.7408   -0.4592 C   0  0  0  0  0  0
   -3.9108    1.5531   -0.2979 C   0  0  0  0  0  0
    4.2346   -4.1161   -0.3245 C   0  0  0  0  0  0
    1.8711   -3.6564   -0.5866 C   0  0  0  0  0  0
    6.3204    1.2817    0.8127 C   0  0  0  0  0  0
   -4.7212    1.6472   -1.5878 C   0  0  0  0  0  0
   -4.7726    1.0900    0.8732 C   0  0  0  0  0  0
    4.0596   -5.3756   -0.9292 C   0  0  0  0  0  0
    1.6928   -4.9154   -1.1918 C   0  0  0  0  0  0
    2.7869   -5.7785   -1.3646 C   0  0  0  0  0  0
   -4.9900    0.5021   -2.3723 C   0  0  0  0  0  0
   -5.1603    2.0140    1.8685 C   0  0  0  0  0  0
   -5.2233    2.8998   -2.0054 C   0  0  0  0  0  0
   -5.1913   -0.2556    0.9803 C   0  0  0  0  0  0
    5.9851    3.0798   -0.7462 C   0  0  0  0  0  0
   -5.7437    0.6107   -3.5571 C   0  0  0  0  0  0
   -5.9517    1.5986    2.9569 C   0  0  0  0  0  0
   -5.9769    3.0081   -3.1903 C   0  0  0  0  0  0
   -5.9827   -0.6706    2.0688 C   0  0  0  0  0  0
   -6.2368    1.8637   -3.9673 C   0  0  0  0  0  0
   -6.3627    0.2561    3.0579 C   0  0  0  0  0  0
    5.5515    2.4248   -2.0642 C   0  0  0  0  0  0
    0.8540   -2.3472    1.4796 H   0  0  0  0  0  0
    1.7350   -1.5809    2.7406 H   0  0  0  0  0  0
    2.4979    0.1841   -1.1172 H   0  0  0  0  0  0
    1.3825   -1.1211   -1.1988 H   0  0  0  0  0  0
    0.4533    0.5070    2.4640 H   0  0  0  0  0  0
   -0.6385   -0.8487    2.5542 H   0  0  0  0  0  0
    0.1202    0.8886   -1.2212 H   0  0  0  0  0  0
    0.9115    1.5530    0.1780 H   0  0  0  0  0  0
    5.3786   -1.5342    0.0550 H   0  0  0  0  0  0
    5.0808   -2.2461    1.6577 H   0  0  0  0  0  0
   -2.2372    0.4645    1.6403 H   0  0  0  0  0  0
   -1.4077    1.8545    0.9892 H   0  0  0  0  0  0
    5.3401    1.2080    2.7296 H   0  0  0  0  0  0
    6.3800   -0.1688    2.4043 H   0  0  0  0  0  0
   -2.0793    1.1229   -1.3341 H   0  0  0  0  0  0
   -2.8263   -0.3047   -0.6728 H   0  0  0  0  0  0
   -3.5928    2.5716   -0.0694 H   0  0  0  0  0  0
    5.2354   -3.8627   -0.0106 H   0  0  0  0  0  0
    0.9897   -3.0479   -0.4870 H   0  0  0  0  0  0
    4.9064   -6.0336   -1.0585 H   0  0  0  0  0  0
    0.7111   -5.2190   -1.5245 H   0  0  0  0  0  0
    2.6508   -6.7444   -1.8287 H   0  0  0  0  0  0
   -4.6254   -0.4687   -2.0731 H   0  0  0  0  0  0
   -4.8537    3.0477    1.8030 H   0  0  0  0  0  0
   -5.0351    3.7859   -1.4170 H   0  0  0  0  0  0
   -4.9101   -0.9783    0.2294 H   0  0  0  0  0  0
    5.5266    4.0651   -0.6615 H   0  0  0  0  0  0
    7.0648    3.2352   -0.7264 H   0  0  0  0  0  0
   -5.9451   -0.2687   -4.1510 H   0  0  0  0  0  0
   -6.2445    2.3109    3.7143 H   0  0  0  0  0  0
   -6.3570    3.9698   -3.5022 H   0  0  0  0  0  0
   -6.2995   -1.7004    2.1442 H   0  0  0  0  0  0
   -6.8154    1.9464   -4.8756 H   0  0  0  0  0  0
   -6.9704   -0.0621    3.8923 H   0  0  0  0  0  0
    5.8392    3.0418   -2.9154 H   0  0  0  0  0  0
    6.0141    1.4458   -2.1923 H   0  0  0  0  0  0
    4.4699    2.2919   -2.0976 H   0  0  0  0  0  0
   -0.4549   -0.0057    0.6200 N   0  3  0  0  0  0
   -0.7453   -0.8671    0.1796 H   0  0  0  0  0  0
  1 11  2  0  0  0
  2 20  1  0  0  0
  2 30  1  0  0  0
  3 20  2  0  0  0
  4  6  1  0  0  0
  4 12  1  0  0  0
  4 14  1  0  0  0
  5 11  1  0  0  0
  5 12  1  0  0  0
  5 15  1  0  0  0
  6  7  1  0  0  0
  6  8  1  0  0  0
  6 11  1  0  0  0
  7  9  1  0  0  0
  7 38  1  0  0  0
  7 39  1  0  0  0
  8 10  1  0  0  0
  8 40  1  0  0  0
  8 41  1  0  0  0
  9 42  1  0  0  0
  9 43  1  0  0  0
  9 75  1  0  0  0
 10 44  1  0  0  0
 10 45  1  0  0  0
 10 75  1  0  0  0
 12 46  1  0  0  0
 12 47  1  0  0  0
 13 16  1  0  0  0
 13 48  1  0  0  0
 13 49  1  0  0  0
 13 75  1  0  0  0
 14 18  2  0  0  0
 14 19  1  0  0  0
 15 20  1  0  0  0
 15 50  1  0  0  0
 15 51  1  0  0  0
 16 17  1  0  0  0
 16 52  1  0  0  0
 16 53  1  0  0  0
 17 21  1  0  0  0
 17 22  1  0  0  0
 17 54  1  0  0  0
 18 23  1  0  0  0
 18 55  1  0  0  0
 19 24  2  0  0  0
 19 56  1  0  0  0
 21 26  2  0  0  0
 21 28  1  0  0  0
 22 27  2  0  0  0
 22 29  1  0  0  0
 23 25  2  0  0  0
 23 57  1  0  0  0
 24 25  1  0  0  0
 24 58  1  0  0  0
 25 59  1  0  0  0
 26 31  1  0  0  0
 26 60  1  0  0  0
 27 32  1  0  0  0
 27 61  1  0  0  0
 28 33  2  0  0  0
 28 62  1  0  0  0
 29 34  2  0  0  0
 29 63  1  0  0  0
 30 37  1  0  0  0
 30 64  1  0  0  0
 30 65  1  0  0  0
 31 35  2  0  0  0
 31 66  1  0  0  0
 32 36  2  0  0  0
 32 67  1  0  0  0
 33 35  1  0  0  0
 33 68  1  0  0  0
 34 36  1  0  0  0
 34 69  1  0  0  0
 35 70  1  0  0  0
 36 71  1  0  0  0
 37 72  1  0  0  0
 37 73  1  0  0  0
 37 74  1  0  0  0
 75 76  1  0  0  0
M  CHG  1  75   1
M  END
> <LID>
L022587

> <PC_CID>
10414035

> <Names>


> <CAS_Numbers>


$$$$
12132992
                    3D
 Structure written by MMmdl.
 84 88  0  0  1  0            999 V2000
   -7.4714   -2.5622    0.4631 O   0  0  0  0  0  0
    1.8860   -3.9551   -2.5675 O   0  0  0  0  0  0
    6.1005    4.0784    0.5490 O   0  0  0  0  0  0
   -6.2095    0.2469   -0.0295 N   0  0  0  0  0  0
   -8.4077    0.5315   -0.5796 N   0  0  0  0  0  0
    7.1529    2.5749   -0.8006 N   0  0  0  0  0  0
   -4.9353   -0.4349    0.2081 C   0  0  0  0  0  0
   -4.4962   -0.3445    1.6798 C   0  0  0  0  0  0
   -3.8154    0.0783   -0.7144 C   0  0  0  0  0  0
   -3.1572   -1.0687    1.8978 C   0  0  0  0  0  0
   -2.4942   -0.6576   -0.4341 C   0  0  0  0  0  0
   -0.7689   -1.1245    1.2872 C   0  0  0  0  0  0
    0.3903   -0.2236    0.8155 C   0  0  0  0  0  0
   -6.4839    1.6094    0.1227 C   0  0  0  0  0  0
    1.7844   -0.7696    1.2018 C   0  0  2  0  0  0
   -7.3836   -0.3083   -0.4351 C   0  0  0  0  0  0
   -7.8575    1.7464   -0.2302 C   0  0  0  0  0  0
    2.9102    0.2075    0.8781 C   0  0  0  0  0  0
    2.0734   -2.1631    0.6490 C   0  0  0  0  0  0
   -7.5388   -1.7746   -0.7078 C   0  0  0  0  0  0
   -5.7221    2.7282    0.5187 C   0  0  0  0  0  0
   -8.4452    3.0302   -0.1794 C   0  0  0  0  0  0
   -6.3273    3.9989    0.5631 C   0  0  0  0  0  0
    3.8144    0.5957    1.8905 C   0  0  0  0  0  0
    3.0678    0.7346   -0.4231 C   0  0  0  0  0  0
    1.8627   -2.4675   -0.7147 C   0  0  0  0  0  0
    2.5625   -3.1680    1.5095 C   0  0  0  0  0  0
   -7.6842    4.1492    0.2146 C   0  0  0  0  0  0
    4.8618    1.4930    1.6066 C   0  0  0  0  0  0
    4.1154    1.6313   -0.7075 C   0  0  0  0  0  0
    2.1263   -3.7548   -1.2252 C   0  0  0  0  0  0
    5.0280    2.0028    0.3023 C   0  0  0  0  0  0
    2.8307   -4.4569    1.0136 C   0  0  0  0  0  0
    2.6140   -4.7527   -0.3454 C   0  0  0  0  0  0
    6.1410    2.9684    0.0169 C   0  0  0  0  0  0
    8.2546    3.4966   -1.1160 C   0  0  0  0  0  0
    7.3316    1.2126   -1.3314 C   0  0  0  0  0  0
    2.1535   -5.2401   -3.1100 C   0  0  0  0  0  0
    9.3087    3.5338    0.0016 C   0  0  0  0  0  0
    6.9374    1.1034   -2.8132 C   0  0  0  0  0  0
   -5.0619   -1.4926   -0.0166 H   0  0  0  0  0  0
   -5.2603   -0.7843    2.3220 H   0  0  0  0  0  0
   -4.3952    0.6944    1.9916 H   0  0  0  0  0  0
   -3.6607    1.1482   -0.5827 H   0  0  0  0  0  0
   -4.1002   -0.0633   -1.7577 H   0  0  0  0  0  0
   -2.8539   -0.9452    2.9383 H   0  0  0  0  0  0
   -3.2762   -2.1403    1.7282 H   0  0  0  0  0  0
   -2.5906   -1.7122   -0.6976 H   0  0  0  0  0  0
   -1.7207   -0.2441   -1.0800 H   0  0  0  0  0  0
   -0.6655   -1.2638    2.3643 H   0  0  0  0  0  0
   -0.7049   -2.1191    0.8435 H   0  0  0  0  0  0
    0.3353   -0.0723   -0.2610 H   0  0  0  0  0  0
    0.2681    0.7640    1.2626 H   0  0  0  0  0  0
    1.7683   -0.8669    2.2885 H   0  0  0  0  0  0
   -8.5026   -1.9517   -1.1867 H   0  0  0  0  0  0
   -6.7761   -2.0981   -1.4165 H   0  0  0  0  0  0
   -4.6832    2.6266    0.7897 H   0  0  0  0  0  0
   -9.4851    3.1521   -0.4439 H   0  0  0  0  0  0
   -5.7508    4.8611    0.8654 H   0  0  0  0  0  0
    3.7109    0.2070    2.8930 H   0  0  0  0  0  0
    2.3864    0.4591   -1.2136 H   0  0  0  0  0  0
    1.4938   -1.7097   -1.3890 H   0  0  0  0  0  0
    2.7362   -2.9560    2.5544 H   0  0  0  0  0  0
   -8.1436    5.1264    0.2505 H   0  0  0  0  0  0
   -7.6276   -3.4640    0.2279 H   0  0  0  0  0  0
    5.5433    1.7820    2.3939 H   0  0  0  0  0  0
    4.2056    2.0405   -1.7023 H   0  0  0  0  0  0
    3.2050   -5.2220    1.6778 H   0  0  0  0  0  0
    2.8312   -5.7527   -0.6885 H   0  0  0  0  0  0
    8.7377    3.2022   -2.0480 H   0  0  0  0  0  0
    7.8691    4.5014   -1.2979 H   0  0  0  0  0  0
    8.3798    0.9300   -1.2246 H   0  0  0  0  0  0
    6.7873    0.4691   -0.7489 H   0  0  0  0  0  0
    1.9195   -5.2369   -4.1744 H   0  0  0  0  0  0
    3.2062   -5.5061   -3.0050 H   0  0  0  0  0  0
    1.5376   -6.0077   -2.6396 H   0  0  0  0  0  0
   10.1253    4.2063   -0.2612 H   0  0  0  0  0  0
    8.8834    3.8852    0.9421 H   0  0  0  0  0  0
    9.7367    2.5464    0.1759 H   0  0  0  0  0  0
    7.0866    0.0856   -3.1739 H   0  0  0  0  0  0
    5.8922    1.3574   -2.9782 H   0  0  0  0  0  0
    7.5391    1.7616   -3.4397 H   0  0  0  0  0  0
   -2.1013   -0.5363    0.9965 N   0  3  0  0  0  0
   -2.0291    0.4501    1.2019 H   0  0  0  0  0  0
  1 20  1  0  0  0
  1 65  1  0  0  0
  2 31  1  0  0  0
  2 38  1  0  0  0
  3 35  2  0  0  0
  4  7  1  0  0  0
  4 14  1  0  0  0
  4 16  1  0  0  0
  5 16  2  0  0  0
  5 17  1  0  0  0
  6 35  1  0  0  0
  6 36  1  0  0  0
  6 37  1  0  0  0
  7  8  1  0  0  0
  7  9  1  0  0  0
  7 41  1  0  0  0
  8 10  1  0  0  0
  8 42  1  0  0  0
  8 43  1  0  0  0
  9 11  1  0  0  0
  9 44  1  0  0  0
  9 45  1  0  0  0
 10 46  1  0  0  0
 10 47  1  0  0  0
 10 83  1  0  0  0
 11 48  1  0  0  0
 11 49  1  0  0  0
 11 83  1  0  0  0
 12 13  1  0  0  0
 12 50  1  0  0  0
 12 51  1  0  0  0
 12 83  1  0  0  0
 13 15  1  0  0  0
 13 52  1  0  0  0
 13 53  1  0  0  0
 14 17  1  0  0  0
 14 21  2  0  0  0
 15 18  1  0  0  0
 15 19  1  0  0  0
 15 54  1  0  0  0
 16 20  1  0  0  0
 17 22  2  0  0  0
 18 24  2  0  0  0
 18 25  1  0  0  0
 19 26  2  0  0  0
 19 27  1  0  0  0
 20 55  1  0  0  0
 20 56  1  0  0  0
 21 23  1  0  0  0
 21 57  1  0  0  0
 22 28  1  0  0  0
 22 58  1  0  0  0
 23 28  2  0  0  0
 23 59  1  0  0  0
 24 29  1  0  0  0
 24 60  1  0  0  0
 25 30  2  0  0  0
 25 61  1  0  0  0
 26 31  1  0  0  0
 26 62  1  0  0  0
 27 33  2  0  0  0
 27 63  1  0  0  0
 28 64  1  0  0  0
 29 32  2  0  0  0
 29 66  1  0  0  0
 30 32  1  0  0  0
 30 67  1  0  0  0
 31 34  2  0  0  0
 32 35  1  0  0  0
 33 34  1  0  0  0
 33 68  1  0  0  0
 34 69  1  0  0  0
 36 39  1  0  0  0
 36 70  1  0  0  0
 36 71  1  0  0  0
 37 40  1  0  0  0
 37 72  1  0  0  0
 37 73  1  0  0  0
 38 74  1  0  0  0
 38 75  1  0  0  0
 38 76  1  0  0  0
 39 77  1  0  0  0
 39 78  1  0  0  0
 39 79  1  0  0  0
 40 80  1  0  0  0
 40 81  1  0  0  0
 40 82  1  0  0  0
 83 84  1  0  0  0
M  CHG  1  83   1
M  END
> <LID>
L020887

> <PC_CID>
12132992

> <Names>


> <CAS_Numbers>


$$$$
9826561
                    3D
 Structure written by MMmdl.
 71 74  0  0  1  0            999 V2000
    6.0915   -0.1163   -0.1961 O   0  0  0  0  0  0
   -0.5869    7.4763   -1.4412 O   0  0  0  0  0  0
   -4.2667   -4.2769   -1.5036 N   0  0  0  0  0  0
    5.3967   -2.2561    0.1617 N   0  0  0  0  0  0
   -0.6956    7.6955    0.7926 N   0  0  0  0  0  0
   -2.7299    0.9322    0.6492 C   0  0  0  0  0  0
   -1.2605   -1.1088    0.6005 C   0  0  0  0  0  0
   -3.6702    0.2521   -0.3582 C   0  0  0  0  0  0
   -2.2384   -1.7550   -0.3961 C   0  0  0  0  0  0
   -1.3035    0.4128    0.5064 C   0  0  0  0  0  0
   -0.2146    1.2009    0.3108 C   0  0  0  0  0  0
   -4.6093   -1.8921   -1.1217 C   0  0  0  0  0  0
    1.1466    0.6432    0.2380 C   0  0  0  0  0  0
   -0.3286    2.6615    0.1629 C   0  0  0  0  0  0
   -4.8487   -3.3379   -0.7252 C   0  0  0  0  0  0
    1.8884    0.7412   -0.9579 C   0  0  0  0  0  0
    1.7422    0.0486    1.3714 C   0  0  0  0  0  0
   -0.9316    3.2229   -0.9827 C   0  0  0  0  0  0
    0.2130    3.5174    1.1440 C   0  0  0  0  0  0
   -5.6385   -3.6511    0.4011 C   0  0  0  0  0  0
    3.7773   -0.4020    0.0925 C   0  0  0  0  0  0
    3.1967    0.2254   -1.0297 C   0  0  0  0  0  0
    3.0501   -0.4678    1.3011 C   0  0  0  0  0  0
   -1.0164    4.6204   -1.1317 C   0  0  0  0  0  0
    0.1299    4.9155    0.9968 C   0  0  0  0  0  0
   -0.4978    5.4797   -0.1380 C   0  0  0  0  0  0
    5.1834   -0.9225    0.0096 C   0  0  0  0  0  0
   -5.8286   -5.0071    0.7301 C   0  0  0  0  0  0
   -4.4553   -5.5745   -1.1800 C   0  0  0  0  0  0
   -5.2243   -5.9908   -0.0756 C   0  0  0  0  0  0
    6.7630   -2.7991    0.1625 C   0  0  0  0  0  0
    4.3392   -3.2778    0.2380 C   0  0  0  0  0  0
   -0.5760    6.9689   -0.3217 C   0  0  0  0  0  0
    7.3737   -2.7714    1.5706 C   0  0  0  0  0  0
    3.7850   -3.6264   -1.1512 C   0  0  0  0  0  0
   -2.7997    2.0134    0.5451 H   0  0  0  0  0  0
   -3.0652    0.7126    1.6636 H   0  0  0  0  0  0
   -1.5267   -1.3959    1.6184 H   0  0  0  0  0  0
   -0.2648   -1.5103    0.4196 H   0  0  0  0  0  0
   -4.6895    0.6012   -0.1877 H   0  0  0  0  0  0
   -3.4010    0.5441   -1.3748 H   0  0  0  0  0  0
   -1.8983   -1.5754   -1.4174 H   0  0  0  0  0  0
   -2.2259   -2.8346   -0.2464 H   0  0  0  0  0  0
   -5.5669   -1.3731   -1.0613 H   0  0  0  0  0  0
   -4.2863   -1.8259   -2.1623 H   0  0  0  0  0  0
    1.4541    1.2138   -1.8269 H   0  0  0  0  0  0
    1.1952   -0.0107    2.3011 H   0  0  0  0  0  0
   -1.3314    2.5798   -1.7532 H   0  0  0  0  0  0
    0.6977    3.1015    2.0155 H   0  0  0  0  0  0
   -6.0913   -2.8744    1.0000 H   0  0  0  0  0  0
    3.7516    0.3089   -1.9533 H   0  0  0  0  0  0
    3.4933   -0.9139    2.1799 H   0  0  0  0  0  0
   -1.4841    5.0287   -2.0162 H   0  0  0  0  0  0
    0.5609    5.5459    1.7609 H   0  0  0  0  0  0
   -6.4269   -5.2875    1.5845 H   0  0  0  0  0  0
   -3.9783   -6.3022   -1.8197 H   0  0  0  0  0  0
   -5.3484   -7.0405    0.1463 H   0  0  0  0  0  0
    6.7635   -3.8232   -0.2135 H   0  0  0  0  0  0
    7.4030   -2.2483   -0.5289 H   0  0  0  0  0  0
    4.7347   -4.1844    0.6983 H   0  0  0  0  0  0
    3.5284   -2.9766    0.8978 H   0  0  0  0  0  0
    8.3798   -3.1909    1.5642 H   0  0  0  0  0  0
    7.4427   -1.7526    1.9532 H   0  0  0  0  0  0
    6.7756   -3.3537    2.2720 H   0  0  0  0  0  0
    3.0329   -4.4123   -1.0805 H   0  0  0  0  0  0
    3.3154   -2.7639   -1.6244 H   0  0  0  0  0  0
    4.5751   -3.9826   -1.8129 H   0  0  0  0  0  0
   -0.7742    8.6996    0.7249 H   0  0  0  0  0  0
   -0.7146    7.2401    1.6929 H   0  0  0  0  0  0
   -3.6202   -1.2272   -0.2369 N   0  3  2  0  0  0
   -3.9026   -1.4427    0.7087 H   0  0  0  0  0  0
  1 27  2  0  0  0
  2 33  2  0  0  0
  3 15  1  0  0  0
  3 29  2  0  0  0
  4 27  1  0  0  0
  4 31  1  0  0  0
  4 32  1  0  0  0
  5 33  1  0  0  0
  5 68  1  0  0  0
  5 69  1  0  0  0
  6  8  1  0  0  0
  6 10  1  0  0  0
  6 36  1  0  0  0
  6 37  1  0  0  0
  7  9  1  0  0  0
  7 10  1  0  0  0
  7 38  1  0  0  0
  7 39  1  0  0  0
  8 40  1  0  0  0
  8 41  1  0  0  0
  8 70  1  0  0  0
  9 42  1  0  0  0
  9 43  1  0  0  0
  9 70  1  0  0  0
 10 11  2  0  0  0
 11 13  1  0  0  0
 11 14  1  0  0  0
 12 15  1  0  0  0
 12 44  1  0  0  0
 12 45  1  0  0  0
 12 70  1  0  0  0
 13 16  2  0  0  0
 13 17  1  0  0  0
 14 18  2  0  0  0
 14 19  1  0  0  0
 15 20  2  0  0  0
 16 22  1  0  0  0
 16 46  1  0  0  0
 17 23  2  0  0  0
 17 47  1  0  0  0
 18 24  1  0  0  0
 18 48  1  0  0  0
 19 25  2  0  0  0
 19 49  1  0  0  0
 20 28  1  0  0  0
 20 50  1  0  0  0
 21 22  2  0  0  0
 21 23  1  0  0  0
 21 27  1  0  0  0
 22 51  1  0  0  0
 23 52  1  0  0  0
 24 26  2  0  0  0
 24 53  1  0  0  0
 25 26  1  0  0  0
 25 54  1  0  0  0
 26 33  1  0  0  0
 28 30  2  0  0  0
 28 55  1  0  0  0
 29 30  1  0  0  0
 29 56  1  0  0  0
 30 57  1  0  0  0
 31 34  1  0  0  0
 31 58  1  0  0  0
 31 59  1  0  0  0
 32 35  1  0  0  0
 32 60  1  0  0  0
 32 61  1  0  0  0
 34 62  1  0  0  0
 34 63  1  0  0  0
 34 64  1  0  0  0
 35 65  1  0  0  0
 35 66  1  0  0  0
 35 67  1  0  0  0
 70 71  1  0  0  0
M  CHG  1  70   1
M  END
> <LID>
L023455

> <PC_CID>
9826561

> <Names>


> <CAS_Numbers>


$$$$
11385379
                    3D
 Structure written by MMmdl.
 69 71  0  0  1  0            999 V2000
   -3.7172   -5.9504   -1.3202 O   0  0  0  0  0  0
    4.7048    3.0686   -1.5592 O   0  0  0  0  0  0
   -4.9825    4.6303   -0.1968 O   0  0  0  0  0  0
    5.6826    1.8934    0.1297 N   0  0  0  0  0  0
   -5.9970    3.3374    1.3359 N   0  0  0  0  0  0
    0.1480   -3.6180   -0.5945 C   0  0  0  0  0  0
   -2.2897   -3.3072   -0.4173 C   0  0  0  0  0  0
    0.3888   -2.5156    0.4482 C   0  0  0  0  0  0
   -2.0966   -2.1841    0.6168 C   0  0  0  0  0  0
   -0.7464   -1.4986    0.4421 C   0  0  0  0  0  0
   -1.3539   -5.4210   -1.3367 C   0  0  0  0  0  0
   -0.5780   -0.1594    0.2903 C   0  0  0  0  0  0
   -2.4462   -6.4078   -0.8898 C   0  0  0  0  0  0
    0.7502    0.4332    0.0621 C   0  0  0  0  0  0
   -1.7097    0.7815    0.3516 C   0  0  0  0  0  0
    1.4280    0.2264   -1.1588 C   0  0  0  0  0  0
    1.3357    1.2588    1.0444 C   0  0  0  0  0  0
   -2.0624    1.5390   -0.7843 C   0  0  0  0  0  0
   -2.4235    0.9730    1.5540 C   0  0  0  0  0  0
    3.2912    1.6059   -0.3834 C   0  0  0  0  0  0
    2.6892    0.8113   -1.3815 C   0  0  0  0  0  0
    2.5968    1.8447    0.8230 C   0  0  0  0  0  0
   -3.1288    2.4568   -0.7272 C   0  0  0  0  0  0
   -3.4906    1.8900    1.6135 C   0  0  0  0  0  0
   -3.8606    2.6321    0.4680 C   0  0  0  0  0  0
    4.6237    2.2466   -0.6456 C   0  0  0  0  0  0
   -4.7680   -6.8213   -0.9392 C   0  0  0  0  0  0
    6.9869    2.5498   -0.0425 C   0  0  0  0  0  0
    5.6811    0.7985    1.1141 C   0  0  0  0  0  0
   -4.9818    3.6310    0.5191 C   0  0  0  0  0  0
    7.0847    3.8273    0.8028 C   0  0  0  0  0  0
    5.8443   -0.5717    0.4398 C   0  0  0  0  0  0
    0.9491   -4.3547   -0.5227 H   0  0  0  0  0  0
    0.1958   -3.1957   -1.5998 H   0  0  0  0  0  0
   -2.3806   -2.8793   -1.4171 H   0  0  0  0  0  0
   -3.2315   -3.8092   -0.2013 H   0  0  0  0  0  0
    1.3649   -2.0623    0.2848 H   0  0  0  0  0  0
    0.4342   -2.9605    1.4430 H   0  0  0  0  0  0
   -2.1410   -2.5985    1.6247 H   0  0  0  0  0  0
   -2.9306   -1.4891    0.5345 H   0  0  0  0  0  0
   -1.5375   -5.0634   -2.3511 H   0  0  0  0  0  0
   -0.4179   -5.9798   -1.3772 H   0  0  0  0  0  0
   -2.2566   -7.3805   -1.3465 H   0  0  0  0  0  0
   -2.4218   -6.5496    0.1920 H   0  0  0  0  0  0
    0.9794   -0.3831   -1.9296 H   0  0  0  0  0  0
    0.8166    1.4461    1.9732 H   0  0  0  0  0  0
   -1.5139    1.4177   -1.7072 H   0  0  0  0  0  0
   -2.1501    0.4161    2.4385 H   0  0  0  0  0  0
    3.1955    0.6435   -2.3214 H   0  0  0  0  0  0
    3.0286    2.4794    1.5835 H   0  0  0  0  0  0
   -3.3821    3.0255   -1.6105 H   0  0  0  0  0  0
   -4.0129    2.0214    2.5499 H   0  0  0  0  0  0
   -5.7193   -6.4240   -1.2930 H   0  0  0  0  0  0
   -4.6361   -7.8136   -1.3724 H   0  0  0  0  0  0
   -4.8266   -6.9175    0.1458 H   0  0  0  0  0  0
    7.7929    1.8686    0.2342 H   0  0  0  0  0  0
    7.1701    2.7861   -1.0921 H   0  0  0  0  0  0
    6.4954    0.9412    1.8259 H   0  0  0  0  0  0
    4.7847    0.8061    1.7305 H   0  0  0  0  0  0
    8.0605    4.2977    0.6816 H   0  0  0  0  0  0
    6.3278    4.5557    0.5100 H   0  0  0  0  0  0
    6.9499    3.6107    1.8629 H   0  0  0  0  0  0
    5.8823   -1.3662    1.1851 H   0  0  0  0  0  0
    5.0138   -0.7905   -0.2316 H   0  0  0  0  0  0
    6.7659   -0.6180   -0.1410 H   0  0  0  0  0  0
   -6.7865    3.9639    1.3918 H   0  0  0  0  0  0
   -5.9751    2.4910    1.8848 H   0  0  0  0  0  0
   -1.1667   -4.2829   -0.3981 N   0  3  1  0  0  0
   -1.1427   -4.6778    0.5314 H   0  0  0  0  0  0
  1 13  1  0  0  0
  1 27  1  0  0  0
  2 26  2  0  0  0
  3 30  2  0  0  0
  4 26  1  0  0  0
  4 28  1  0  0  0
  4 29  1  0  0  0
  5 30  1  0  0  0
  5 66  1  0  0  0
  5 67  1  0  0  0
  6  8  1  0  0  0
  6 33  1  0  0  0
  6 34  1  0  0  0
  6 68  1  0  0  0
  7  9  1  0  0  0
  7 35  1  0  0  0
  7 36  1  0  0  0
  7 68  1  0  0  0
  8 10  1  0  0  0
  8 37  1  0  0  0
  8 38  1  0  0  0
  9 10  1  0  0  0
  9 39  1  0  0  0
  9 40  1  0  0  0
 10 12  2  0  0  0
 11 13  1  0  0  0
 11 41  1  0  0  0
 11 42  1  0  0  0
 11 68  1  0  0  0
 12 14  1  0  0  0
 12 15  1  0  0  0
 13 43  1  0  0  0
 13 44  1  0  0  0
 14 16  2  0  0  0
 14 17  1  0  0  0
 15 18  2  0  0  0
 15 19  1  0  0  0
 16 21  1  0  0  0
 16 45  1  0  0  0
 17 22  2  0  0  0
 17 46  1  0  0  0
 18 23  1  0  0  0
 18 47  1  0  0  0
 19 24  2  0  0  0
 19 48  1  0  0  0
 20 21  2  0  0  0
 20 22  1  0  0  0
 20 26  1  0  0  0
 21 49  1  0  0  0
 22 50  1  0  0  0
 23 25  2  0  0  0
 23 51  1  0  0  0
 24 25  1  0  0  0
 24 52  1  0  0  0
 25 30  1  0  0  0
 27 53  1  0  0  0
 27 54  1  0  0  0
 27 55  1  0  0  0
 28 31  1  0  0  0
 28 56  1  0  0  0
 28 57  1  0  0  0
 29 32  1  0  0  0
 29 58  1  0  0  0
 29 59  1  0  0  0
 31 60  1  0  0  0
 31 61  1  0  0  0
 31 62  1  0  0  0
 32 63  1  0  0  0
 32 64  1  0  0  0
 32 65  1  0  0  0
 68 69  1  0  0  0
M  CHG  1  68   1
M  END
> <LID>
L023460

> <PC_CID>
11385379

> <Names>


> <CAS_Numbers>


$$$$
5464087
                    3D
 Structure written by MMmdl.
 45 49  0  0  1  0            999 V2000
    1.3747   -1.5937   -0.4996 O   0  0  0  0  0  0
   -3.0730   -0.3802   -0.2600 O   0  0  0  0  0  0
   -0.7480   -3.7925   -0.5476 O   0  0  0  0  0  0
    4.2218   -0.3120   -0.2085 O   0  0  0  0  0  0
   -0.5767   -0.2718   -0.2612 C   0  0  1  0  0  0
   -1.9065   -0.0239    0.4864 C   0  0  1  0  0  0
   -1.9856    1.5231    0.6115 C   0  0  1  0  0  0
    0.0781   -1.5978    0.0888 C   0  0  1  0  0  0
   -0.8142    0.1258   -1.7421 C   0  0  0  0  0  0
    0.6348    0.4898    0.1743 C   0  0  0  0  0  0
   -2.0586   -1.0186    1.6752 C   0  0  0  0  0  0
   -0.7501    2.1632    1.3193 C   0  0  0  0  0  0
   -1.1894    1.6373   -1.8143 C   0  0  0  0  0  0
    0.6272    1.7238    0.8222 C   0  0  0  0  0  0
   -1.9748   -2.5280    1.1831 C   0  0  0  0  0  0
   -0.8591   -2.7763    0.1334 C   0  0  0  0  0  0
    1.7400   -0.3037   -0.1509 C   0  0  0  0  0  0
   -2.5014    3.5105   -0.8418 C   0  0  0  0  0  0
    1.8975    2.2884    1.0509 C   0  0  0  0  0  0
    3.0129    0.2923    0.0632 C   0  0  0  0  0  0
    3.0653    1.5910    0.6418 C   0  0  0  0  0  0
    4.2175   -1.5654   -0.8740 C   0  0  0  0  0  0
   -2.8760    1.7809    1.1873 H   0  0  0  0  0  0
    0.3345   -1.5847    1.1540 H   0  0  0  0  0  0
   -1.5878   -0.4864   -2.2055 H   0  0  0  0  0  0
    0.0751   -0.0532   -2.3480 H   0  0  0  0  0  0
   -3.0060   -0.8548    2.1912 H   0  0  0  0  0  0
   -1.2886   -0.8240    2.4230 H   0  0  0  0  0  0
   -0.7904    1.8948    2.3754 H   0  0  0  0  0  0
   -0.8020    3.2511    1.3001 H   0  0  0  0  0  0
   -0.2914    2.2473   -1.7103 H   0  0  0  0  0  0
   -1.5836    1.8630   -2.8056 H   0  0  0  0  0  0
   -2.9235   -2.8271    0.7372 H   0  0  0  0  0  0
   -1.8145   -3.1888    2.0352 H   0  0  0  0  0  0
   -3.0697   -1.3148   -0.4047 H   0  0  0  0  0  0
   -2.8743    3.7743   -1.8320 H   0  0  0  0  0  0
   -3.2724    3.7741   -0.1171 H   0  0  0  0  0  0
   -1.6189    4.1199   -0.6460 H   0  0  0  0  0  0
    1.9856    3.2380    1.5580 H   0  0  0  0  0  0
    4.0300    2.0411    0.8253 H   0  0  0  0  0  0
    5.2431   -1.8493   -1.1095 H   0  0  0  0  0  0
    3.7989   -2.3484   -0.2410 H   0  0  0  0  0  0
    3.6651   -1.5210   -1.8137 H   0  0  0  0  0  0
   -2.1895    2.0648   -0.7812 N   0  3  2  0  0  0
   -3.0411    1.6002   -1.0671 H   0  0  0  0  0  0
  1  8  1  0  0  0
  1 17  1  0  0  0
  2  6  1  0  0  0
  2 35  1  0  0  0
  3 16  2  0  0  0
  4 20  1  0  0  0
  4 22  1  0  0  0
  5  6  1  0  0  0
  5  8  1  0  0  0
  5  9  1  0  0  0
  5 10  1  0  0  0
  6  7  1  0  0  0
  6 11  1  0  0  0
  7 12  1  0  0  0
  7 23  1  0  0  0
  7 44  1  0  0  0
  8 16  1  0  0  0
  8 24  1  0  0  0
  9 13  1  0  0  0
  9 25  1  0  0  0
  9 26  1  0  0  0
 10 14  2  0  0  0
 10 17  1  0  0  0
 11 15  1  0  0  0
 11 27  1  0  0  0
 11 28  1  0  0  0
 12 14  1  0  0  0
 12 29  1  0  0  0
 12 30  1  0  0  0
 13 31  1  0  0  0
 13 32  1  0  0  0
 13 44  1  0  0  0
 14 19  1  0  0  0
 15 16  1  0  0  0
 15 33  1  0  0  0
 15 34  1  0  0  0
 17 20  2  0  0  0
 18 36  1  0  0  0
 18 37  1  0  0  0
 18 38  1  0  0  0
 18 44  1  0  0  0
 19 21  2  0  0  0
 19 39  1  0  0  0
 20 21  1  0  0  0
 21 40  1  0  0  0
 22 41  1  0  0  0
 22 42  1  0  0  0
 22 43  1  0  0  0
 44 45  1  0  0  0
M  CHG  1  44   1
M  END
> <LID>
L013406

> <PC_CID>
5464087

> <Names>
Aspirin-oxycodone hydrochloride-oxycodone terephthalate combination;Oxycodone;oxycodone terephthalate

> <CAS_Numbers>
124-90-3;76-42-6

$$$$
9819102
                    3D
 Structure written by MMmdl.
 51 54  0  0  1  0            999 V2000
   -2.9311   -2.8168    0.5541 O   0  0  0  0  0  0
   -3.1642   -0.7463   -0.4381 N   0  0  0  0  0  0
   -4.8793   -1.6093    0.6035 N   0  0  0  0  0  0
   -0.7771   -0.1764    0.0525 C   0  0  1  0  0  0
    0.6309   -0.1030   -0.5737 C   0  0  0  0  0  0
   -1.1081    1.1524    0.7598 C   0  0  0  0  0  0
   -0.0123    1.5075    1.7718 C   0  0  0  0  0  0
    1.3703    1.5341    1.1028 C   0  0  0  0  0  0
   -1.8300   -0.5614   -1.0093 C   0  0  0  0  0  0
    3.0402    0.1652   -0.1206 C   0  0  0  0  0  0
    4.1105   -0.0445    0.9650 C   0  0  0  0  0  0
   -4.2186    0.1767   -0.5483 C   0  0  0  0  0  0
   -3.5928   -1.8214    0.2662 C   0  0  0  0  0  0
   -5.2978   -0.3730    0.1116 C   0  0  0  0  0  0
    5.5007   -0.1686    0.3718 C   0  0  0  0  0  0
   -4.2936    1.4384   -1.1645 C   0  0  0  0  0  0
   -6.5351    0.2824    0.2084 C   0  0  0  0  0  0
   -5.5288    2.1245   -1.0840 C   0  0  0  0  0  0
    6.2786    0.9861    0.1423 C   0  0  0  0  0  0
    6.0203   -1.4380    0.0410 C   0  0  0  0  0  0
   -6.6374    1.5529   -0.4058 C   0  0  0  0  0  0
    7.5680    0.8715   -0.4131 C   0  0  0  0  0  0
    7.3097   -1.5516   -0.5145 C   0  0  0  0  0  0
    8.0838   -0.3972   -0.7415 C   0  0  0  0  0  0
   -0.7595   -0.9639    0.8079 H   0  0  0  0  0  0
    0.8695   -1.0675   -1.0244 H   0  0  0  0  0  0
    0.6520    0.6350   -1.3777 H   0  0  0  0  0  0
   -2.0665    1.0876    1.2756 H   0  0  0  0  0  0
   -1.2041    1.9521    0.0240 H   0  0  0  0  0  0
   -0.2254    2.4763    2.2248 H   0  0  0  0  0  0
   -0.0136    0.7799    2.5846 H   0  0  0  0  0  0
    1.4156    2.3403    0.3687 H   0  0  0  0  0  0
    2.1212    1.7562    1.8600 H   0  0  0  0  0  0
   -1.8618    0.1904   -1.7979 H   0  0  0  0  0  0
   -1.5359   -1.4907   -1.4999 H   0  0  0  0  0  0
    3.1020   -0.6743   -0.8149 H   0  0  0  0  0  0
    3.2499    1.0626   -0.7050 H   0  0  0  0  0  0
    4.1177    0.7814    1.6760 H   0  0  0  0  0  0
    3.8880   -0.9433    1.5418 H   0  0  0  0  0  0
   -5.4707   -2.2335    1.1321 H   0  0  0  0  0  0
   -3.4484    1.8732   -1.6768 H   0  0  0  0  0  0
   -7.3712   -0.1613    0.7286 H   0  0  0  0  0  0
   -5.6292    3.0965   -1.5441 H   0  0  0  0  0  0
    5.8894    1.9628    0.3904 H   0  0  0  0  0  0
    5.4325   -2.3283    0.2107 H   0  0  0  0  0  0
   -7.5704    2.0950   -0.3570 H   0  0  0  0  0  0
    8.1615    1.7569   -0.5876 H   0  0  0  0  0  0
    7.7052   -2.5246   -0.7667 H   0  0  0  0  0  0
    9.0725   -0.4847   -1.1673 H   0  0  0  0  0  0
    1.6658    0.2370    0.4381 N   0  3  2  0  0  0
    1.6071   -0.4794    1.1478 H   0  0  0  0  0  0
  1 13  2  0  0  0
  2  9  1  0  0  0
  2 12  1  0  0  0
  2 13  1  0  0  0
  3 13  1  0  0  0
  3 14  1  0  0  0
  3 40  1  0  0  0
  4  5  1  0  0  0
  4  6  1  0  0  0
  4  9  1  0  0  0
  4 25  1  0  0  0
  5 26  1  0  0  0
  5 27  1  0  0  0
  5 50  1  0  0  0
  6  7  1  0  0  0
  6 28  1  0  0  0
  6 29  1  0  0  0
  7  8  1  0  0  0
  7 30  1  0  0  0
  7 31  1  0  0  0
  8 32  1  0  0  0
  8 33  1  0  0  0
  8 50  1  0  0  0
  9 34  1  0  0  0
  9 35  1  0  0  0
 10 11  1  0  0  0
 10 36  1  0  0  0
 10 37  1  0  0  0
 10 50  1  0  0  0
 11 15  1  0  0  0
 11 38  1  0  0  0
 11 39  1  0  0  0
 12 14  1  0  0  0
 12 16  2  0  0  0
 14 17  2  0  0  0
 15 19  2  0  0  0
 15 20  1  0  0  0
 16 18  1  0  0  0
 16 41  1  0  0  0
 17 21  1  0  0  0
 17 42  1  0  0  0
 18 21  2  0  0  0
 18 43  1  0  0  0
 19 22  1  0  0  0
 19 44  1  0  0  0
 20 23  2  0  0  0
 20 45  1  0  0  0
 21 46  1  0  0  0
 22 24  2  0  0  0
 22 47  1  0  0  0
 23 24  1  0  0  0
 23 48  1  0  0  0
 24 49  1  0  0  0
 50 51  1  0  0  0
M  CHG  1  50   1
M  END
> <LID>
L021890

> <PC_CID>
9819102

> <Names>


> <CAS_Numbers>


$$$$
10480966
                    3D
 Structure written by MMmdl.
 74 78  0  0  1  0            999 V2000
   -3.2818   -0.7202   -3.3351 O   0  0  0  0  0  0
    2.2223    1.6118   -1.9393 O   0  0  0  0  0  0
   -5.1543   -0.1668   -0.3676 N   0  0  0  0  0  0
   -5.4243   -0.4441   -2.6579 N   0  0  0  0  0  0
    4.4501    1.6425   -1.6752 N   0  0  0  0  0  0
   -3.8141   -0.3593   -0.9649 C   0  0  0  0  0  0
   -3.1165   -1.6480   -0.4376 C   0  0  0  0  0  0
   -2.9017    0.8880   -0.7706 C   0  0  0  0  0  0
   -1.6378   -1.7709   -0.8560 C   0  0  0  0  0  0
   -1.4339    0.6521   -1.1771 C   0  0  0  0  0  0
   -4.1207   -0.5302   -2.4568 C   0  0  0  0  0  0
   -6.1602   -0.2204   -1.4371 C   0  0  0  0  0  0
    0.5858   -0.7055   -0.7329 C   0  0  0  0  0  0
    1.4249    0.1847    0.2211 C   0  0  0  0  0  0
   -5.5050    0.0351    0.9419 C   0  0  0  0  0  0
    2.9674    0.2759   -0.0719 C   0  0  0  0  0  0
    3.6316    0.9523    1.1608 C   0  0  0  0  0  0
    3.4527   -1.1798   -0.3400 C   0  0  0  0  0  0
   -6.8710    0.1981    1.2981 C   0  0  0  0  0  0
   -4.5536    0.0927    1.9944 C   0  0  0  0  0  0
    3.2075    1.2241   -1.3052 C   0  0  0  0  0  0
   -7.2657    0.4072    2.6335 C   0  0  0  0  0  0
   -4.9451    0.3017    3.3308 C   0  0  0  0  0  0
    4.7348    0.3830    1.8502 C   0  0  0  0  0  0
    3.9211   -1.6282   -1.6053 C   0  0  0  0  0  0
    3.1458    2.2037    1.6210 C   0  0  0  0  0  0
    3.3396   -2.1436    0.6948 C   0  0  0  0  0  0
   -6.3025    0.4595    3.6540 C   0  0  0  0  0  0
    5.3126    1.0277    2.9606 C   0  0  0  0  0  0
    4.3017   -2.9689   -1.8065 C   0  0  0  0  0  0
    3.7221    2.8497    2.7311 C   0  0  0  0  0  0
    3.7193   -3.4840    0.4954 C   0  0  0  0  0  0
    4.5977    2.6048   -2.7729 C   0  0  0  0  0  0
    5.7278    1.2220   -1.0925 C   0  0  0  0  0  0
    4.8049    2.2603    3.4055 C   0  0  0  0  0  0
    4.2060   -3.8978   -0.7561 C   0  0  0  0  0  0
   -3.1594   -1.7169    0.6454 H   0  0  0  0  0  0
   -3.6566   -2.5308   -0.7844 H   0  0  0  0  0  0
   -3.2963    1.7290   -1.3435 H   0  0  0  0  0  0
   -2.9069    1.2383    0.2573 H   0  0  0  0  0  0
   -1.2070   -2.6335   -0.3459 H   0  0  0  0  0  0
   -1.5416   -1.9702   -1.9236 H   0  0  0  0  0  0
   -0.8559    1.5381   -0.9162 H   0  0  0  0  0  0
   -1.3380    0.5446   -2.2577 H   0  0  0  0  0  0
   -6.7116    0.7183   -1.5093 H   0  0  0  0  0  0
   -6.8632   -1.0396   -1.2787 H   0  0  0  0  0  0
    0.8575   -1.7476   -0.5633 H   0  0  0  0  0  0
    0.8088   -0.5097   -1.7819 H   0  0  0  0  0  0
   -5.8684   -0.5257   -3.5610 H   0  0  0  0  0  0
    0.9913    1.1827    0.2605 H   0  0  0  0  0  0
    1.2813   -0.2094    1.2283 H   0  0  0  0  0  0
   -7.6563    0.1676    0.5587 H   0  0  0  0  0  0
   -3.4981   -0.0198    1.8203 H   0  0  0  0  0  0
   -8.3118    0.5277    2.8738 H   0  0  0  0  0  0
   -4.1990    0.3409    4.1108 H   0  0  0  0  0  0
    5.1775   -0.5480    1.5336 H   0  0  0  0  0  0
    3.9993   -0.9655   -2.4531 H   0  0  0  0  0  0
    2.3263    2.6944    1.1183 H   0  0  0  0  0  0
    2.9598   -1.8539    1.6636 H   0  0  0  0  0  0
   -6.6034    0.6199    4.6789 H   0  0  0  0  0  0
    6.1524    0.5765    3.4683 H   0  0  0  0  0  0
    4.6632   -3.2863   -2.7736 H   0  0  0  0  0  0
    3.3345    3.8018    3.0625 H   0  0  0  0  0  0
    3.6333   -4.1957    1.3033 H   0  0  0  0  0  0
    5.6016    3.0279   -2.8253 H   0  0  0  0  0  0
    4.3886    2.1230   -3.7289 H   0  0  0  0  0  0
    3.9121    3.4460   -2.6577 H   0  0  0  0  0  0
    6.5313    1.2573   -1.8290 H   0  0  0  0  0  0
    6.0032    1.8868   -0.2734 H   0  0  0  0  0  0
    5.7166    0.2013   -0.7193 H   0  0  0  0  0  0
    5.2497    2.7557    4.2560 H   0  0  0  0  0  0
    4.4970   -4.9262   -0.9126 H   0  0  0  0  0  0
   -0.8726   -0.5481   -0.5031 N   0  3  0  0  0  0
   -0.9921   -0.4184    0.4913 H   0  0  0  0  0  0
  1 11  2  0  0  0
  2 21  2  0  0  0
  3  6  1  0  0  0
  3 12  1  0  0  0
  3 15  1  0  0  0
  4 11  1  0  0  0
  4 12  1  0  0  0
  4 49  1  0  0  0
  5 21  1  0  0  0
  5 33  1  0  0  0
  5 34  1  0  0  0
  6  7  1  0  0  0
  6  8  1  0  0  0
  6 11  1  0  0  0
  7  9  1  0  0  0
  7 37  1  0  0  0
  7 38  1  0  0  0
  8 10  1  0  0  0
  8 39  1  0  0  0
  8 40  1  0  0  0
  9 41  1  0  0  0
  9 42  1  0  0  0
  9 73  1  0  0  0
 10 43  1  0  0  0
 10 44  1  0  0  0
 10 73  1  0  0  0
 12 45  1  0  0  0
 12 46  1  0  0  0
 13 14  1  0  0  0
 13 47  1  0  0  0
 13 48  1  0  0  0
 13 73  1  0  0  0
 14 16  1  0  0  0
 14 50  1  0  0  0
 14 51  1  0  0  0
 15 19  2  0  0  0
 15 20  1  0  0  0
 16 17  1  0  0  0
 16 18  1  0  0  0
 16 21  1  0  0  0
 17 24  2  0  0  0
 17 26  1  0  0  0
 18 25  2  0  0  0
 18 27  1  0  0  0
 19 22  1  0  0  0
 19 52  1  0  0  0
 20 23  2  0  0  0
 20 53  1  0  0  0
 22 28  2  0  0  0
 22 54  1  0  0  0
 23 28  1  0  0  0
 23 55  1  0  0  0
 24 29  1  0  0  0
 24 56  1  0  0  0
 25 30  1  0  0  0
 25 57  1  0  0  0
 26 31  2  0  0  0
 26 58  1  0  0  0
 27 32  2  0  0  0
 27 59  1  0  0  0
 28 60  1  0  0  0
 29 35  2  0  0  0
 29 61  1  0  0  0
 30 36  2  0  0  0
 30 62  1  0  0  0
 31 35  1  0  0  0
 31 63  1  0  0  0
 32 36  1  0  0  0
 32 64  1  0  0  0
 33 65  1  0  0  0
 33 66  1  0  0  0
 33 67  1  0  0  0
 34 68  1  0  0  0
 34 69  1  0  0  0
 34 70  1  0  0  0
 35 71  1  0  0  0
 36 72  1  0  0  0
 73 74  1  0  0  0
M  CHG  1  73   1
M  END
> <LID>
L022589

> <PC_CID>
10480966

> <Names>


> <CAS_Numbers>


$$$$
44212478
                    3D
 Structure written by MMmdl.
 75 78  0  0  1  0            999 V2000
    1.8323   -4.7819    0.9526 O   0  0  0  0  0  0
    4.8262    0.6915    1.2032 O   0  0  0  0  0  0
    1.8923    0.5794    1.1351 N   0  0  0  0  0  0
    4.5129    2.6657    0.1220 N   0  0  0  0  0  0
   -1.4806   -1.0960    0.4199 C   0  0  2  0  0  0
   -1.6192   -0.3599   -0.9641 C   0  0  1  0  0  0
   -2.8767   -1.1322    1.1031 C   0  0  0  0  0  0
   -0.4844   -0.3052    1.3376 C   0  0  0  0  0  0
   -2.3531    0.9935   -0.8268 C   0  0  0  0  0  0
   -0.2658   -0.1829   -1.7109 C   0  0  0  0  0  0
   -3.5993    0.2279    1.1438 C   0  0  0  0  0  0
    0.7137    0.1489    0.5786 C   0  0  0  0  0  0
    0.8419    0.2227   -0.7744 C   0  0  0  0  0  0
   -1.0083   -2.5514    0.1558 C   0  0  0  0  0  0
   -4.4772    2.0942   -0.2344 C   0  0  0  0  0  0
    2.1573    0.7021   -1.0703 C   0  0  0  0  0  0
    2.7693    0.9476    0.1378 C   0  0  0  0  0  0
    0.2117   -3.0686    0.6651 C   0  0  0  0  0  0
   -1.8044   -3.4151   -0.6360 C   0  0  0  0  0  0
   -5.9931    1.8543   -0.1172 C   0  0  0  0  0  0
    2.7398    0.8724   -2.4512 C   0  0  0  0  0  0
    0.6283   -4.3906    0.4072 C   0  0  0  0  0  0
   -1.4042   -4.7367   -0.9013 C   0  0  0  0  0  0
    4.1162    1.4286    0.5179 C   0  0  0  0  0  0
   -6.8022    3.1522   -0.2554 C   0  0  0  0  0  0
   -0.1941   -5.2275   -0.3832 C   0  0  0  0  0  0
   -8.3127    2.9193   -0.1398 C   0  0  0  0  0  0
    5.8816    3.1357    0.3810 C   0  0  0  0  0  0
    3.6253    3.6791   -0.4703 C   0  0  0  0  0  0
    2.2819   -6.1057    0.7030 C   0  0  0  0  0  0
    6.8386    2.7043   -0.7389 C   0  0  0  0  0  0
    2.8011    4.4036    0.6038 C   0  0  0  0  0  0
   -2.2573   -0.9498   -1.6221 H   0  0  0  0  0  0
   -2.7856   -1.5342    2.1130 H   0  0  0  0  0  0
   -3.5414   -1.8167    0.5778 H   0  0  0  0  0  0
   -0.2107   -0.8707    2.2284 H   0  0  0  0  0  0
   -0.9545    0.5952    1.7265 H   0  0  0  0  0  0
   -1.7629    1.7036   -0.2457 H   0  0  0  0  0  0
   -2.4705    1.4304   -1.8194 H   0  0  0  0  0  0
   -0.3495    0.5400   -2.5228 H   0  0  0  0  0  0
    0.0270   -1.1287   -2.1679 H   0  0  0  0  0  0
   -4.5968    0.0686    1.5514 H   0  0  0  0  0  0
   -3.1061    0.9207    1.8252 H   0  0  0  0  0  0
   -4.1280    2.7649    0.5523 H   0  0  0  0  0  0
   -4.2944    2.6090   -1.1787 H   0  0  0  0  0  0
    2.0917    0.6256    2.1243 H   0  0  0  0  0  0
    0.8754   -2.4660    1.2633 H   0  0  0  0  0  0
   -2.7380   -3.0753   -1.0575 H   0  0  0  0  0  0
   -6.3103    1.1496   -0.8870 H   0  0  0  0  0  0
   -6.2336    1.3951    0.8413 H   0  0  0  0  0  0
    2.6224   -0.0481   -3.0232 H   0  0  0  0  0  0
    2.2258    1.6737   -2.9819 H   0  0  0  0  0  0
    3.8024    1.1118   -2.4076 H   0  0  0  0  0  0
   -2.0284   -5.3767   -1.5073 H   0  0  0  0  0  0
   -6.4897    3.8623    0.5112 H   0  0  0  0  0  0
   -6.5854    3.6204   -1.2163 H   0  0  0  0  0  0
    0.0815   -6.2465   -0.6081 H   0  0  0  0  0  0
   -8.8591    3.8572   -0.2421 H   0  0  0  0  0  0
   -8.6681    2.2417   -0.9167 H   0  0  0  0  0  0
   -8.5728    2.4875    0.8271 H   0  0  0  0  0  0
    5.8984    4.2226    0.4732 H   0  0  0  0  0  0
    6.2464    2.7684    1.3418 H   0  0  0  0  0  0
    4.2163    4.4111   -1.0227 H   0  0  0  0  0  0
    2.9588    3.2525   -1.2153 H   0  0  0  0  0  0
    3.2421   -6.2581    1.1955 H   0  0  0  0  0  0
    1.5861   -6.8451    1.1018 H   0  0  0  0  0  0
    2.4269   -6.2833   -0.3635 H   0  0  0  0  0  0
    7.8472    3.0715   -0.5490 H   0  0  0  0  0  0
    6.8915    1.6181   -0.8189 H   0  0  0  0  0  0
    6.5182    3.0966   -1.7044 H   0  0  0  0  0  0
    2.1751    5.1749    0.1550 H   0  0  0  0  0  0
    2.1442    3.7143    1.1351 H   0  0  0  0  0  0
    3.4463    4.8860    1.3385 H   0  0  0  0  0  0
   -3.6938    0.8318   -0.2096 N   0  3  1  0  0  0
   -4.1933    0.1757   -0.7932 H   0  0  0  0  0  0
  1 22  1  0  0  0
  1 30  1  0  0  0
  2 24  2  0  0  0
  3 12  1  0  0  0
  3 17  1  0  0  0
  3 46  1  0  0  0
  4 24  1  0  0  0
  4 28  1  0  0  0
  4 29  1  0  0  0
  5  6  1  0  0  0
  5  7  1  0  0  0
  5  8  1  0  0  0
  5 14  1  0  0  0
  6  9  1  0  0  0
  6 10  1  0  0  0
  6 33  1  0  0  0
  7 11  1  0  0  0
  7 34  1  0  0  0
  7 35  1  0  0  0
  8 12  1  0  0  0
  8 36  1  0  0  0
  8 37  1  0  0  0
  9 38  1  0  0  0
  9 39  1  0  0  0
  9 74  1  0  0  0
 10 13  1  0  0  0
 10 40  1  0  0  0
 10 41  1  0  0  0
 11 42  1  0  0  0
 11 43  1  0  0  0
 11 74  1  0  0  0
 12 13  2  0  0  0
 13 16  1  0  0  0
 14 18  2  0  0  0
 14 19  1  0  0  0
 15 20  1  0  0  0
 15 44  1  0  0  0
 15 45  1  0  0  0
 15 74  1  0  0  0
 16 17  2  0  0  0
 16 21  1  0  0  0
 17 24  1  0  0  0
 18 22  1  0  0  0
 18 47  1  0  0  0
 19 23  2  0  0  0
 19 48  1  0  0  0
 20 25  1  0  0  0
 20 49  1  0  0  0
 20 50  1  0  0  0
 21 51  1  0  0  0
 21 52  1  0  0  0
 21 53  1  0  0  0
 22 26  2  0  0  0
 23 26  1  0  0  0
 23 54  1  0  0  0
 25 27  1  0  0  0
 25 55  1  0  0  0
 25 56  1  0  0  0
 26 57  1  0  0  0
 27 58  1  0  0  0
 27 59  1  0  0  0
 27 60  1  0  0  0
 28 31  1  0  0  0
 28 61  1  0  0  0
 28 62  1  0  0  0
 29 32  1  0  0  0
 29 63  1  0  0  0
 29 64  1  0  0  0
 30 65  1  0  0  0
 30 66  1  0  0  0
 30 67  1  0  0  0
 31 68  1  0  0  0
 31 69  1  0  0  0
 31 70  1  0  0  0
 32 71  1  0  0  0
 32 72  1  0  0  0
 32 73  1  0  0  0
 74 75  1  0  0  0
M  CHG  1  74   1
M  END
> <LID>
L012497

> <PC_CID>
44212478

> <Names>


> <CAS_Numbers>


$$$$
14987133
                    3D
 Structure written by MMmdl.
 57 58  0  0  1  0            999 V2000
   -1.8958    2.6341    0.2810 O   0  0  0  0  0  0
   -1.0507    1.7026    2.1788 O   0  0  0  0  0  0
   -4.4347   -0.5767   -1.3332 O   0  0  0  0  0  0
    6.0805   -1.0776   -0.0672 O   0  0  0  0  0  0
    6.3081    0.8575   -1.3172 O   0  0  0  0  0  0
   -2.5174   -0.2529   -0.1538 N   0  0  0  0  0  0
   -1.1533    0.3271    0.1633 C   0  0  0  0  0  0
   -0.3321   -0.7257    0.9969 C   0  0  0  0  0  0
   -0.2594    0.6041   -1.0917 C   0  0  0  0  0  0
    1.1457   -0.3762    1.2552 C   0  0  0  0  0  0
    1.2155    0.9328   -0.7870 C   0  0  0  0  0  0
   -1.3521    1.6305    0.9861 C   0  0  0  0  0  0
    3.3205    0.0670    0.1937 C   0  0  0  0  0  0
   -3.0771   -1.1293    0.8347 C   0  0  0  0  0  0
   -3.3463   -0.0030   -1.2229 C   0  0  0  0  0  0
    4.1347   -0.1435   -1.0959 C   0  0  0  0  0  0
   -2.9929    0.9842   -2.3522 C   0  0  0  0  0  0
   -3.0572   -2.5291    0.6337 C   0  0  0  0  0  0
   -3.6559   -0.6039    2.0124 C   0  0  0  0  0  0
    5.6375   -0.0596   -0.8413 C   0  0  0  0  0  0
   -4.1611    1.2849   -3.3083 C   0  0  0  0  0  0
   -2.1562    3.8764    0.9110 C   0  0  0  0  0  0
   -3.6005   -3.3922    1.6047 C   0  0  0  0  0  0
   -4.1982   -1.4697    2.9816 C   0  0  0  0  0  0
   -4.1694   -2.8628    2.7789 C   0  0  0  0  0  0
    7.4117   -1.1561    0.2522 C   0  0  0  0  0  0
    7.8681   -2.0599    1.1307 C   0  0  0  0  0  0
   -0.7877   -0.9068    1.9716 H   0  0  0  0  0  0
   -0.3546   -1.6854    0.4781 H   0  0  0  0  0  0
   -0.2958   -0.2556   -1.7625 H   0  0  0  0  0  0
   -0.6068    1.4617   -1.6597 H   0  0  0  0  0  0
    1.2405    0.5021    1.8947 H   0  0  0  0  0  0
    1.6111   -1.2019    1.7950 H   0  0  0  0  0  0
    1.7373    1.0840   -1.7315 H   0  0  0  0  0  0
    1.2918    1.8730   -0.2381 H   0  0  0  0  0  0
    3.4912    1.0650    0.6013 H   0  0  0  0  0  0
    3.6737   -0.6386    0.9479 H   0  0  0  0  0  0
    3.9158   -1.1225   -1.5229 H   0  0  0  0  0  0
    3.8711    0.5988   -1.8489 H   0  0  0  0  0  0
   -2.6777    1.9362   -1.9356 H   0  0  0  0  0  0
   -2.1789    0.5723   -2.9470 H   0  0  0  0  0  0
   -2.6233   -2.9419   -0.2653 H   0  0  0  0  0  0
   -3.6912    0.4629    2.1764 H   0  0  0  0  0  0
   -5.0160    1.7025   -2.7748 H   0  0  0  0  0  0
   -4.4933    0.3872   -3.8311 H   0  0  0  0  0  0
   -3.8612    2.0103   -4.0647 H   0  0  0  0  0  0
   -2.8562    3.7534    1.7384 H   0  0  0  0  0  0
   -1.2359    4.3195    1.2935 H   0  0  0  0  0  0
   -2.5956    4.5698    0.1940 H   0  0  0  0  0  0
   -3.5821   -4.4606    1.4481 H   0  0  0  0  0  0
   -4.6390   -1.0642    3.8804 H   0  0  0  0  0  0
   -4.5869   -3.5254    3.5228 H   0  0  0  0  0  0
    8.0530   -0.4473   -0.2544 H   0  0  0  0  0  0
    8.9186   -2.1164    1.3750 H   0  0  0  0  0  0
    7.1983   -2.7543    1.6165 H   0  0  0  0  0  0
    1.8666   -0.1500   -0.0154 N   0  3  0  0  0  0
    1.7740   -1.0004   -0.5529 H   0  0  0  0  0  0
  1 12  1  0  0  0
  1 22  1  0  0  0
  2 12  2  0  0  0
  3 15  2  0  0  0
  4 20  1  0  0  0
  4 26  1  0  0  0
  5 20  2  0  0  0
  6  7  1  0  0  0
  6 14  1  0  0  0
  6 15  1  0  0  0
  7  8  1  0  0  0
  7  9  1  0  0  0
  7 12  1  0  0  0
  8 10  1  0  0  0
  8 28  1  0  0  0
  8 29  1  0  0  0
  9 11  1  0  0  0
  9 30  1  0  0  0
  9 31  1  0  0  0
 10 32  1  0  0  0
 10 33  1  0  0  0
 10 56  1  0  0  0
 11 34  1  0  0  0
 11 35  1  0  0  0
 11 56  1  0  0  0
 13 16  1  0  0  0
 13 36  1  0  0  0
 13 37  1  0  0  0
 13 56  1  0  0  0
 14 18  2  0  0  0
 14 19  1  0  0  0
 15 17  1  0  0  0
 16 20  1  0  0  0
 16 38  1  0  0  0
 16 39  1  0  0  0
 17 21  1  0  0  0
 17 40  1  0  0  0
 17 41  1  0  0  0
 18 23  1  0  0  0
 18 42  1  0  0  0
 19 24  2  0  0  0
 19 43  1  0  0  0
 21 44  1  0  0  0
 21 45  1  0  0  0
 21 46  1  0  0  0
 22 47  1  0  0  0
 22 48  1  0  0  0
 22 49  1  0  0  0
 23 25  2  0  0  0
 23 50  1  0  0  0
 24 25  1  0  0  0
 24 51  1  0  0  0
 25 52  1  0  0  0
 26 27  2  0  0  0
 26 53  1  0  0  0
 27 54  1  0  0  0
 27 55  1  0  0  0
 56 57  1  0  0  0
M  CHG  1  56   1
M  END
> <LID>
L004292

> <PC_CID>
14987133

> <Names>


> <CAS_Numbers>


$$$$
44215366
                    3D
 Structure written by MMmdl.
 71 76  0  0  1  0            999 V2000
   -1.4587   -1.4393    1.5811 O   0  0  0  0  0  0
    7.0650   -0.1211    1.5801 O   0  0  0  0  0  0
    5.3221    0.5863   -1.9886 O   0  0  0  0  0  0
   -2.7783    1.6404    0.4056 N   0  0  0  0  0  0
   -3.4557   -0.3605    1.3938 N   0  0  0  0  0  0
    5.1479    0.3488    0.2722 N   0  0  0  0  0  0
   -2.9215   -3.3030   -0.9286 N   0  0  0  0  0  0
   -1.5851    0.7815    0.5578 C   0  0  0  0  0  0
   -0.9799    0.3782   -0.8189 C   0  0  0  0  0  0
   -0.5047    1.4302    1.4730 C   0  0  0  0  0  0
    0.3845   -0.3305   -0.7144 C   0  0  0  0  0  0
    0.8431    0.6809    1.4748 C   0  0  0  0  0  0
   -2.1402   -0.4724    1.2410 C   0  0  0  0  0  0
   -3.9468    0.9184    0.9235 C   0  0  0  0  0  0
    2.7149   -0.1150    0.0555 C   0  0  0  0  0  0
   -2.8877    2.8963   -0.1322 C   0  0  0  0  0  0
   -4.3623   -1.3677    1.9462 C   0  0  0  0  0  0
    3.8046    0.9297    0.3694 C   0  0  0  0  0  0
   -4.1472    3.5539   -0.1590 C   0  0  0  0  0  0
   -1.7826    3.5984   -0.6818 C   0  0  0  0  0  0
   -5.5025   -1.7453    1.0024 C   0  0  0  0  0  0
   -4.2950    4.8436   -0.7044 C   0  0  0  0  0  0
   -1.9272    4.8883   -1.2281 C   0  0  0  0  0  0
   -5.2928   -2.4827   -0.1952 C   0  0  0  0  0  0
   -6.8116   -1.3330    1.3368 C   0  0  0  0  0  0
    5.6861   -0.3202    1.4515 C   0  0  0  0  0  0
   -3.1841    5.5145   -1.2406 C   0  0  0  0  0  0
    5.8051    0.2473   -0.9072 C   0  0  0  0  0  0
    7.2083   -0.2797   -0.8190 C   0  0  0  0  0  0
   -6.3896   -2.7900   -1.0286 C   0  0  0  0  0  0
   -7.8992   -1.6438    0.4998 C   0  0  0  0  0  0
    7.7979   -0.4164    0.4566 C   0  0  0  0  0  0
   -7.6884   -2.3727   -0.6838 C   0  0  0  0  0  0
   -3.9714   -2.9410   -0.6034 C   0  0  0  0  0  0
    7.9580   -0.5878   -1.9755 C   0  0  0  0  0  0
    9.1374   -0.8353    0.5754 C   0  0  0  0  0  0
    9.2920   -1.0241   -1.8529 C   0  0  0  0  0  0
    9.8825   -1.1436   -0.5795 C   0  0  0  0  0  0
   -0.8575    1.2357   -1.4741 H   0  0  0  0  0  0
   -1.6750   -0.2717   -1.3538 H   0  0  0  0  0  0
   -0.8760    1.4927    2.4974 H   0  0  0  0  0  0
   -0.3067    2.4617    1.1973 H   0  0  0  0  0  0
    0.2817   -1.3299   -0.2910 H   0  0  0  0  0  0
    0.7779   -0.4681   -1.7224 H   0  0  0  0  0  0
    1.5580    1.2696    2.0481 H   0  0  0  0  0  0
    0.7621   -0.2753    1.9918 H   0  0  0  0  0  0
   -4.4083    1.4590    1.7514 H   0  0  0  0  0  0
   -4.6867    0.7716    0.1349 H   0  0  0  0  0  0
    2.7778   -0.9624    0.7401 H   0  0  0  0  0  0
    2.9057   -0.5142   -0.9418 H   0  0  0  0  0  0
   -3.8231   -2.2758    2.2207 H   0  0  0  0  0  0
   -4.7686   -0.9770    2.8799 H   0  0  0  0  0  0
    3.7160    1.7768   -0.3134 H   0  0  0  0  0  0
    3.6698    1.3495    1.3657 H   0  0  0  0  0  0
   -5.0365    3.0895    0.2381 H   0  0  0  0  0  0
   -0.7920    3.1800   -0.7068 H   0  0  0  0  0  0
   -5.2652    5.3183   -0.7104 H   0  0  0  0  0  0
   -1.0686    5.3984   -1.6394 H   0  0  0  0  0  0
   -6.9894   -0.7694    2.2411 H   0  0  0  0  0  0
    5.2012    0.0717    2.3459 H   0  0  0  0  0  0
    5.4672   -1.3868    1.3712 H   0  0  0  0  0  0
   -3.2955    6.5039   -1.6596 H   0  0  0  0  0  0
   -6.2412   -3.3500   -1.9411 H   0  0  0  0  0  0
   -8.8953   -1.3220    0.7661 H   0  0  0  0  0  0
   -8.5222   -2.6121   -1.3273 H   0  0  0  0  0  0
    7.5217   -0.4835   -2.9585 H   0  0  0  0  0  0
    9.5903   -0.9287    1.5514 H   0  0  0  0  0  0
    9.8659   -1.2586   -2.7374 H   0  0  0  0  0  0
   10.9076   -1.4715   -0.4885 H   0  0  0  0  0  0
    1.3467    0.4619    0.0932 N   0  3  0  0  0  0
    1.4075    1.3673   -0.3506 H   0  0  0  0  0  0
  1 13  2  0  0  0
  2 26  1  0  0  0
  2 32  1  0  0  0
  3 28  2  0  0  0
  4  8  1  0  0  0
  4 14  1  0  0  0
  4 16  1  0  0  0
  5 13  1  0  0  0
  5 14  1  0  0  0
  5 17  1  0  0  0
  6 18  1  0  0  0
  6 26  1  0  0  0
  6 28  1  0  0  0
  7 34  3  0  0  0
  8  9  1  0  0  0
  8 10  1  0  0  0
  8 13  1  0  0  0
  9 11  1  0  0  0
  9 39  1  0  0  0
  9 40  1  0  0  0
 10 12  1  0  0  0
 10 41  1  0  0  0
 10 42  1  0  0  0
 11 43  1  0  0  0
 11 44  1  0  0  0
 11 70  1  0  0  0
 12 45  1  0  0  0
 12 46  1  0  0  0
 12 70  1  0  0  0
 14 47  1  0  0  0
 14 48  1  0  0  0
 15 18  1  0  0  0
 15 49  1  0  0  0
 15 50  1  0  0  0
 15 70  1  0  0  0
 16 19  2  0  0  0
 16 20  1  0  0  0
 17 21  1  0  0  0
 17 51  1  0  0  0
 17 52  1  0  0  0
 18 53  1  0  0  0
 18 54  1  0  0  0
 19 22  1  0  0  0
 19 55  1  0  0  0
 20 23  2  0  0  0
 20 56  1  0  0  0
 21 24  1  0  0  0
 21 25  2  0  0  0
 22 27  2  0  0  0
 22 57  1  0  0  0
 23 27  1  0  0  0
 23 58  1  0  0  0
 24 30  2  0  0  0
 24 34  1  0  0  0
 25 31  1  0  0  0
 25 59  1  0  0  0
 26 60  1  0  0  0
 26 61  1  0  0  0
 27 62  1  0  0  0
 28 29  1  0  0  0
 29 32  1  0  0  0
 29 35  2  0  0  0
 30 33  1  0  0  0
 30 63  1  0  0  0
 31 33  2  0  0  0
 31 64  1  0  0  0
 32 36  2  0  0  0
 33 65  1  0  0  0
 35 37  1  0  0  0
 35 66  1  0  0  0
 36 38  1  0  0  0
 36 67  1  0  0  0
 37 38  2  0  0  0
 37 68  1  0  0  0
 38 69  1  0  0  0
 70 71  1  0  0  0
M  CHG  1  70   1
M  END
> <LID>
L020680

> <PC_CID>
44215366

> <Names>


> <CAS_Numbers>


$$$$
12988903
                    3D
 Structure written by MMmdl.
 57 59  0  0  1  0            999 V2000
   13.1343    0.6764   -2.4825 S   0  0  0  0  0  0
   12.6471    2.0647   -2.4555 O   0  0  0  0  0  0
   14.5797    0.4014   -2.4732 O   0  0  0  0  0  0
   10.7375   -2.3156    2.0948 N   0  0  0  0  0  0
   12.4570   -0.0974   -3.8880 N   0  0  0  0  0  0
   10.6833   -1.6504    3.4072 C   0  0  0  0  0  0
    9.2444   -1.3431    3.8753 C   0  0  0  0  0  0
   11.4334   -2.4248    4.5108 C   0  0  0  0  0  0
    9.2551   -0.5967    5.2201 C   0  0  0  0  0  0
   11.3974   -1.6524    5.8403 C   0  0  0  0  0  0
   11.2743   -1.6255    1.0617 C   0  0  0  0  0  0
   10.1432   -3.5213    1.9433 C   0  0  0  0  0  0
   10.8102   -0.3307    0.7312 C   0  0  0  0  0  0
   12.3158   -2.1996    0.2978 C   0  0  0  0  0  0
   12.4008   -0.2135   -1.1103 C   0  0  0  0  0  0
    8.8150   -3.5998    1.4697 C   0  0  0  0  0  0
   10.8437   -4.7113    2.2401 C   0  0  0  0  0  0
   11.3736    0.3768   -0.3481 C   0  0  0  0  0  0
   12.8823   -1.4953   -0.7816 C   0  0  0  0  0  0
   12.9385   -1.4228   -4.3236 C   0  0  0  0  0  0
   11.2157    0.4045   -4.5082 C   0  0  0  0  0  0
    8.1911   -4.8518    1.3062 C   0  0  0  0  0  0
   10.2198   -5.9633    2.0763 C   0  0  0  0  0  0
    8.8929   -6.0338    1.6108 C   0  0  0  0  0  0
   11.9245   -2.5457   -4.0547 C   0  0  0  0  0  0
    9.9890    0.2436   -3.5992 C   0  0  0  0  0  0
   11.1975   -0.6922    3.3134 H   0  0  0  0  0  0
    8.7218   -0.7450    3.1284 H   0  0  0  0  0  0
    8.6754   -2.2670    3.9861 H   0  0  0  0  0  0
   12.4682   -2.5959    4.2117 H   0  0  0  0  0  0
   10.9843   -3.4068    4.6626 H   0  0  0  0  0  0
    8.2354   -0.4352    5.5708 H   0  0  0  0  0  0
    9.7112    0.3874    5.1037 H   0  0  0  0  0  0
   11.9479   -0.7148    5.7496 H   0  0  0  0  0  0
   11.8823   -2.2311    6.6268 H   0  0  0  0  0  0
   10.0145    0.1274    1.2995 H   0  0  0  0  0  0
   12.6892   -3.1842    0.5384 H   0  0  0  0  0  0
    8.2704   -2.6977    1.2311 H   0  0  0  0  0  0
   11.8638   -4.6674    2.5929 H   0  0  0  0  0  0
   11.0111    1.3657   -0.5863 H   0  0  0  0  0  0
   13.6798   -1.9418   -1.3567 H   0  0  0  0  0  0
   13.1667   -1.3813   -5.3891 H   0  0  0  0  0  0
   13.8785   -1.6538   -3.8231 H   0  0  0  0  0  0
   11.3490    1.4571   -4.7595 H   0  0  0  0  0  0
   11.0458   -0.1100   -5.4547 H   0  0  0  0  0  0
    7.1745   -4.9051    0.9455 H   0  0  0  0  0  0
   10.7602   -6.8698    2.3061 H   0  0  0  0  0  0
    8.4147   -6.9941    1.4844 H   0  0  0  0  0  0
   12.3518   -3.5148   -4.3120 H   0  0  0  0  0  0
   11.6318   -2.5844   -3.0063 H   0  0  0  0  0  0
   11.0206   -2.4242   -4.6514 H   0  0  0  0  0  0
    9.0790    0.5078   -4.1378 H   0  0  0  0  0  0
    9.8741   -0.7787   -3.2405 H   0  0  0  0  0  0
   10.0488    0.9012   -2.7340 H   0  0  0  0  0  0
   10.0026   -1.3636    6.2413 N   0  3  0  0  0  0
    9.5255   -2.2402    6.3977 H   0  0  0  0  0  0
   10.0106   -0.8400    7.1053 H   0  0  0  0  0  0
  1  2  2  0  0  0
  1  3  2  0  0  0
  1  5  1  0  0  0
  1 15  1  0  0  0
  4  6  1  0  0  0
  4 11  1  0  0  0
  4 12  1  0  0  0
  5 20  1  0  0  0
  5 21  1  0  0  0
  6  7  1  0  0  0
  6  8  1  0  0  0
  6 27  1  0  0  0
  7  9  1  0  0  0
  7 28  1  0  0  0
  7 29  1  0  0  0
  8 10  1  0  0  0
  8 30  1  0  0  0
  8 31  1  0  0  0
  9 32  1  0  0  0
  9 33  1  0  0  0
  9 55  1  0  0  0
 10 34  1  0  0  0
 10 35  1  0  0  0
 10 55  1  0  0  0
 11 13  2  0  0  0
 11 14  1  0  0  0
 12 16  2  0  0  0
 12 17  1  0  0  0
 13 18  1  0  0  0
 13 36  1  0  0  0
 14 19  2  0  0  0
 14 37  1  0  0  0
 15 18  2  0  0  0
 15 19  1  0  0  0
 16 22  1  0  0  0
 16 38  1  0  0  0
 17 23  2  0  0  0
 17 39  1  0  0  0
 18 40  1  0  0  0
 19 41  1  0  0  0
 20 25  1  0  0  0
 20 42  1  0  0  0
 20 43  1  0  0  0
 21 26  1  0  0  0
 21 44  1  0  0  0
 21 45  1  0  0  0
 22 24  2  0  0  0
 22 46  1  0  0  0
 23 24  1  0  0  0
 23 47  1  0  0  0
 24 48  1  0  0  0
 25 49  1  0  0  0
 25 50  1  0  0  0
 25 51  1  0  0  0
 26 52  1  0  0  0
 26 53  1  0  0  0
 26 54  1  0  0  0
 55 56  1  0  0  0
 55 57  1  0  0  0
M  CHG  1  55   1
M  END
> <LID>
L018221

> <PC_CID>
12988903

> <Names>


> <CAS_Numbers>


$$$$
12988902
                    3D
 Structure written by MMmdl.
 70 73  0  0  1  0            999 V2000
    1.4919   -4.4143    2.1060 S   0  0  0  0  0  0
    0.4462   -5.3342    2.5812 O   0  0  0  0  0  0
    1.6033   -4.1056    0.6717 O   0  0  0  0  0  0
    1.0596    0.7131    5.1125 N   0  0  0  0  0  0
    3.0311   -5.0229    2.6493 N   0  0  0  0  0  0
    2.0253    0.9697    6.1942 C   0  0  0  0  0  0
    3.4764    1.0970    5.6935 C   0  0  0  0  0  0
    1.9671   -0.0782    7.3235 C   0  0  0  0  0  0
    4.4276    1.4289    6.8548 C   0  0  0  0  0  0
    2.9526    0.2728    8.4504 C   0  0  0  0  0  0
    5.3515    0.6269    8.9935 C   0  0  0  0  0  0
    1.1472   -0.4439    4.4177 C   0  0  0  0  0  0
    0.0444    1.5944    4.9523 C   0  0  0  0  0  0
    5.5367   -0.5988    9.8707 C   0  0  0  0  0  0
    1.9868   -0.5400    3.2855 C   0  0  0  0  0  0
    0.3892   -1.5663    4.8190 C   0  0  0  0  0  0
   -0.1991    2.1662    3.6830 C   0  0  0  0  0  0
   -0.7855    1.9567    6.0389 C   0  0  0  0  0  0
    1.3396   -2.8690    2.9953 C   0  0  0  0  0  0
    2.0848   -1.7508    2.5738 C   0  0  0  0  0  0
    0.4839   -2.7797    4.1112 C   0  0  0  0  0  0
    4.9710   -0.6437   11.1631 C   0  0  0  0  0  0
    6.2794   -1.7004    9.3953 C   0  0  0  0  0  0
   -1.2514    3.0847    3.5027 C   0  0  0  0  0  0
   -1.8380    2.8750    5.8582 C   0  0  0  0  0  0
   -2.0712    3.4399    4.5903 C   0  0  0  0  0  0
    5.1423   -1.7847   11.9710 C   0  0  0  0  0  0
    6.4503   -2.8408   10.2042 C   0  0  0  0  0  0
    4.2633   -4.4378    2.0780 C   0  0  0  0  0  0
    3.1286   -5.6120    4.0031 C   0  0  0  0  0  0
    5.8813   -2.8834   11.4916 C   0  0  0  0  0  0
    5.4494   -5.4146    2.0951 C   0  0  0  0  0  0
    3.6257   -4.6100    5.0592 C   0  0  0  0  0  0
    1.7759    1.9342    6.6402 H   0  0  0  0  0  0
    3.5420    1.8737    4.9305 H   0  0  0  0  0  0
    3.8044    0.1685    5.2254 H   0  0  0  0  0  0
    0.9568   -0.1427    7.7283 H   0  0  0  0  0  0
    2.2103   -1.0688    6.9372 H   0  0  0  0  0  0
    5.4492    1.4789    6.4758 H   0  0  0  0  0  0
    4.1935    2.4128    7.2650 H   0  0  0  0  0  0
    2.6525    1.2027    8.9361 H   0  0  0  0  0  0
    2.9066   -0.5084    9.2090 H   0  0  0  0  0  0
    6.3178    0.8584    8.5428 H   0  0  0  0  0  0
    5.0770    1.4926    9.5986 H   0  0  0  0  0  0
    2.5616    0.3154    2.9616 H   0  0  0  0  0  0
   -0.2630   -1.5007    5.6779 H   0  0  0  0  0  0
    0.4231    1.9056    2.8393 H   0  0  0  0  0  0
   -0.6257    1.5283    7.0171 H   0  0  0  0  0  0
    2.7335   -1.8208    1.7131 H   0  0  0  0  0  0
   -0.0910   -3.6349    4.4338 H   0  0  0  0  0  0
    4.4018    0.1941   11.5389 H   0  0  0  0  0  0
    6.7202   -1.6757    8.4093 H   0  0  0  0  0  0
   -1.4291    3.5170    2.5290 H   0  0  0  0  0  0
   -2.4679    3.1449    6.6931 H   0  0  0  0  0  0
   -2.8786    4.1439    4.4518 H   0  0  0  0  0  0
    4.7071   -1.8171   12.9591 H   0  0  0  0  0  0
    7.0186   -3.6830    9.8376 H   0  0  0  0  0  0
    4.0782   -4.1504    1.0435 H   0  0  0  0  0  0
    4.5153   -3.5194    2.6082 H   0  0  0  0  0  0
    2.1555   -5.9990    4.3037 H   0  0  0  0  0  0
    3.7874   -6.4798    3.9745 H   0  0  0  0  0  0
    6.0128   -3.7580   12.1118 H   0  0  0  0  0  0
    5.7836   -5.6380    3.1080 H   0  0  0  0  0  0
    6.3008   -4.9898    1.5632 H   0  0  0  0  0  0
    5.1920   -6.3548    1.6066 H   0  0  0  0  0  0
    3.6265   -5.0699    6.0475 H   0  0  0  0  0  0
    4.6440   -4.2780    4.8591 H   0  0  0  0  0  0
    2.9899   -3.7277    5.1123 H   0  0  0  0  0  0
    4.3401    0.4067    7.9296 N   0  3  0  0  0  0
    4.5745   -0.4769    7.4998 H   0  0  0  0  0  0
  1  2  2  0  0  0
  1  3  2  0  0  0
  1  5  1  0  0  0
  1 19  1  0  0  0
  4  6  1  0  0  0
  4 12  1  0  0  0
  4 13  1  0  0  0
  5 29  1  0  0  0
  5 30  1  0  0  0
  6  7  1  0  0  0
  6  8  1  0  0  0
  6 34  1  0  0  0
  7  9  1  0  0  0
  7 35  1  0  0  0
  7 36  1  0  0  0
  8 10  1  0  0  0
  8 37  1  0  0  0
  8 38  1  0  0  0
  9 39  1  0  0  0
  9 40  1  0  0  0
  9 69  1  0  0  0
 10 41  1  0  0  0
 10 42  1  0  0  0
 10 69  1  0  0  0
 11 14  1  0  0  0
 11 43  1  0  0  0
 11 44  1  0  0  0
 11 69  1  0  0  0
 12 15  2  0  0  0
 12 16  1  0  0  0
 13 17  2  0  0  0
 13 18  1  0  0  0
 14 22  2  0  0  0
 14 23  1  0  0  0
 15 20  1  0  0  0
 15 45  1  0  0  0
 16 21  2  0  0  0
 16 46  1  0  0  0
 17 24  1  0  0  0
 17 47  1  0  0  0
 18 25  2  0  0  0
 18 48  1  0  0  0
 19 20  2  0  0  0
 19 21  1  0  0  0
 20 49  1  0  0  0
 21 50  1  0  0  0
 22 27  1  0  0  0
 22 51  1  0  0  0
 23 28  2  0  0  0
 23 52  1  0  0  0
 24 26  2  0  0  0
 24 53  1  0  0  0
 25 26  1  0  0  0
 25 54  1  0  0  0
 26 55  1  0  0  0
 27 31  2  0  0  0
 27 56  1  0  0  0
 28 31  1  0  0  0
 28 57  1  0  0  0
 29 32  1  0  0  0
 29 58  1  0  0  0
 29 59  1  0  0  0
 30 33  1  0  0  0
 30 60  1  0  0  0
 30 61  1  0  0  0
 31 62  1  0  0  0
 32 63  1  0  0  0
 32 64  1  0  0  0
 32 65  1  0  0  0
 33 66  1  0  0  0
 33 67  1  0  0  0
 33 68  1  0  0  0
 69 70  1  0  0  0
M  CHG  1  69   1
M  END
> <LID>
L018220

> <PC_CID>
12988902

> <Names>


> <CAS_Numbers>


$$$$
12988900
                    3D
 Structure written by MMmdl.
 53 55  0  0  1  0            999 V2000
   10.0290    7.7964   -2.1516 O   0  0  0  0  0  0
    8.6621    1.7123   -3.3421 N   0  0  0  0  0  0
   12.0788    6.9470   -1.6353 N   0  0  0  0  0  0
    7.5707    1.1908   -2.5033 C   0  0  2  0  0  0
    7.9308    0.0183   -1.5891 C   0  0  0  0  0  0
    6.3488    0.6510   -3.2537 C   0  0  0  0  0  0
    6.5561   -0.5204   -1.1759 C   0  0  0  0  0  0
    9.1726    2.9241   -3.0192 C   0  0  0  0  0  0
    9.2119    0.9135   -4.2848 C   0  0  0  0  0  0
    9.5843    3.2159   -1.6986 C   0  0  0  0  0  0
    9.2949    3.9235   -4.0100 C   0  0  0  0  0  0
    8.6801    0.8785   -5.5928 C   0  0  0  0  0  0
   10.3368    0.1188   -3.9729 C   0  0  0  0  0  0
   10.2537    5.4687   -2.3762 C   0  0  0  0  0  0
   10.1136    4.4806   -1.3778 C   0  0  0  0  0  0
    9.8233    5.1886   -3.6896 C   0  0  0  0  0  0
    9.2582    0.0488   -6.5730 C   0  0  0  0  0  0
   10.9147   -0.7109   -4.9533 C   0  0  0  0  0  0
   10.7872    6.8321   -2.0422 C   0  0  0  0  0  0
   10.3746   -0.7473   -6.2531 C   0  0  0  0  0  0
   12.6199    8.2510   -1.2248 C   0  0  0  0  0  0
   13.0699    5.8584   -1.6523 C   0  0  0  0  0  0
   12.3637    8.5176    0.2651 C   0  0  0  0  0  0
   13.6426    5.6346   -3.0597 C   0  0  0  0  0  0
    7.2080    2.0014   -1.8679 H   0  0  0  0  0  0
    8.4665   -0.7567   -2.1378 H   0  0  0  0  0  0
    8.5428    0.3095   -0.7354 H   0  0  0  0  0  0
    6.6354   -0.0300   -4.0549 H   0  0  0  0  0  0
    5.7310    1.4409   -3.6816 H   0  0  0  0  0  0
    6.5696   -1.6000   -1.0229 H   0  0  0  0  0  0
    6.2274   -0.0538   -0.2465 H   0  0  0  0  0  0
    9.5021    2.4716   -0.9209 H   0  0  0  0  0  0
    8.9778    3.7277   -5.0239 H   0  0  0  0  0  0
    7.8265    1.4894   -5.8482 H   0  0  0  0  0  0
   10.7598    0.1439   -2.9791 H   0  0  0  0  0  0
   10.4141    4.6881   -0.3608 H   0  0  0  0  0  0
    9.9029    5.9424   -4.4598 H   0  0  0  0  0  0
    8.8464    0.0248   -7.5712 H   0  0  0  0  0  0
   11.7737   -1.3180   -4.7083 H   0  0  0  0  0  0
   10.8187   -1.3828   -7.0052 H   0  0  0  0  0  0
   13.6919    8.2950   -1.4224 H   0  0  0  0  0  0
   12.1929    9.0574   -1.8235 H   0  0  0  0  0  0
   13.8885    6.0943   -0.9709 H   0  0  0  0  0  0
   12.6603    4.9281   -1.2647 H   0  0  0  0  0  0
   12.7829    9.4785    0.5638 H   0  0  0  0  0  0
   11.2962    8.5393    0.4864 H   0  0  0  0  0  0
   12.8202    7.7481    0.8882 H   0  0  0  0  0  0
   14.4028    4.8535   -3.0470 H   0  0  0  0  0  0
   12.8689    5.3287   -3.7641 H   0  0  0  0  0  0
   14.1069    6.5426   -3.4455 H   0  0  0  0  0  0
    5.6125   -0.1408   -2.2506 N   0  3  0  0  0  0
    5.2097   -0.9604   -2.6823 H   0  0  0  0  0  0
    4.8790    0.4269   -1.8502 H   0  0  0  0  0  0
  1 19  2  0  0  0
  2  4  1  0  0  0
  2  8  1  0  0  0
  2  9  1  0  0  0
  3 19  1  0  0  0
  3 21  1  0  0  0
  3 22  1  0  0  0
  4  5  1  0  0  0
  4  6  1  0  0  0
  4 25  1  0  0  0
  5  7  1  0  0  0
  5 26  1  0  0  0
  5 27  1  0  0  0
  6 28  1  0  0  0
  6 29  1  0  0  0
  6 51  1  0  0  0
  7 30  1  0  0  0
  7 31  1  0  0  0
  7 51  1  0  0  0
  8 10  2  0  0  0
  8 11  1  0  0  0
  9 12  2  0  0  0
  9 13  1  0  0  0
 10 15  1  0  0  0
 10 32  1  0  0  0
 11 16  2  0  0  0
 11 33  1  0  0  0
 12 17  1  0  0  0
 12 34  1  0  0  0
 13 18  2  0  0  0
 13 35  1  0  0  0
 14 15  2  0  0  0
 14 16  1  0  0  0
 14 19  1  0  0  0
 15 36  1  0  0  0
 16 37  1  0  0  0
 17 20  2  0  0  0
 17 38  1  0  0  0
 18 20  1  0  0  0
 18 39  1  0  0  0
 20 40  1  0  0  0
 21 23  1  0  0  0
 21 41  1  0  0  0
 21 42  1  0  0  0
 22 24  1  0  0  0
 22 43  1  0  0  0
 22 44  1  0  0  0
 23 45  1  0  0  0
 23 46  1  0  0  0
 23 47  1  0  0  0
 24 48  1  0  0  0
 24 49  1  0  0  0
 24 50  1  0  0  0
 51 52  1  0  0  0
 51 53  1  0  0  0
M  CHG  1  51   1
M  END
> <LID>
L018219

> <PC_CID>
12988900

> <Names>


> <CAS_Numbers>


$$$$
11340647
                    3D
 Structure written by MMmdl.
 71 74  0  0  1  0            999 V2000
    6.4883    0.4294   -0.1691 O   0  0  0  0  0  0
   -1.3525    6.8251   -1.3566 O   0  0  0  0  0  0
    6.1577   -1.8009    0.1561 N   0  0  0  0  0  0
   -7.9037   -3.1576    0.0141 N   0  0  0  0  0  0
   -1.5037    6.9908    0.8794 N   0  0  0  0  0  0
   -1.4524   -2.5633   -0.4542 C   0  0  0  0  0  0
   -3.2004   -0.8254   -0.3946 C   0  0  0  0  0  0
   -0.6004   -1.7820    0.5607 C   0  0  0  0  0  0
   -2.3885   -0.0143    0.6276 C   0  0  0  0  0  0
   -0.8949   -0.2874    0.4879 C   0  0  0  0  0  0
   -3.7343   -3.1145   -1.1976 C   0  0  0  0  0  0
    0.0489    0.6733    0.3113 C   0  0  0  0  0  0
    1.4841    0.3502    0.2406 C   0  0  0  0  0  0
   -0.3052    2.0969    0.1828 C   0  0  0  0  0  0
   -5.1932   -3.1299   -0.7786 C   0  0  0  0  0  0
    2.2050    0.5874   -0.9486 C   0  0  0  0  0  0
    2.1648   -0.1535    1.3700 C   0  0  0  0  0  0
   -0.9892    2.5671   -0.9584 C   0  0  0  0  0  0
    0.0839    3.0164    1.1786 C   0  0  0  0  0  0
   -6.1550   -2.3682   -1.4739 C   0  0  0  0  0  0
   -5.6144   -3.9071    0.3198 C   0  0  0  0  0  0
    3.5811    0.2971   -1.0182 C   0  0  0  0  0  0
    3.5407   -0.4444    1.3021 C   0  0  0  0  0  0
    4.2525   -0.2413    0.0996 C   0  0  0  0  0  0
   -1.3039    3.9333   -1.0887 C   0  0  0  0  0  0
   -0.2293    4.3834    1.0501 C   0  0  0  0  0  0
   -0.9381    4.8522   -0.0805 C   0  0  0  0  0  0
   -7.4941   -2.4174   -1.0378 C   0  0  0  0  0  0
   -6.9784   -3.8862    0.6736 C   0  0  0  0  0  0
    5.7261   -0.5194    0.0198 C   0  0  0  0  0  0
    7.5953   -2.1089    0.1596 C   0  0  0  0  0  0
    5.2847   -2.9853    0.2115 C   0  0  0  0  0  0
   -1.2616    6.3103   -0.2441 C   0  0  0  0  0  0
    8.1860   -1.9997    1.5723 C   0  0  0  0  0  0
    4.8031   -3.4017   -1.1861 C   0  0  0  0  0  0
   -1.2706   -3.6312   -0.3260 H   0  0  0  0  0  0
   -1.1432   -2.3101   -1.4699 H   0  0  0  0  0  0
   -2.9821   -0.4753   -1.4050 H   0  0  0  0  0  0
   -4.2610   -0.6444   -0.2203 H   0  0  0  0  0  0
    0.4491   -2.0101    0.3822 H   0  0  0  0  0  0
   -0.8215   -2.1253    1.5720 H   0  0  0  0  0  0
   -2.6872   -0.3015    1.6366 H   0  0  0  0  0  0
   -2.6363    1.0419    0.5387 H   0  0  0  0  0  0
   -3.6373   -2.7674   -2.2276 H   0  0  0  0  0  0
   -3.3767   -4.1451   -1.1824 H   0  0  0  0  0  0
    1.7024    0.9939   -1.8143 H   0  0  0  0  0  0
    1.6309   -0.3161    2.2950 H   0  0  0  0  0  0
   -1.2744    1.8779   -1.7398 H   0  0  0  0  0  0
    0.6280    2.6741    2.0469 H   0  0  0  0  0  0
   -5.8797   -1.7580   -2.3217 H   0  0  0  0  0  0
   -4.9145   -4.5088    0.8810 H   0  0  0  0  0  0
    4.1188    0.4850   -1.9365 H   0  0  0  0  0  0
    4.0477   -0.8232    2.1780 H   0  0  0  0  0  0
   -1.8300    4.2712   -1.9701 H   0  0  0  0  0  0
    0.0888    5.0654    1.8251 H   0  0  0  0  0  0
   -8.2558   -1.8457   -1.5470 H   0  0  0  0  0  0
   -7.3349   -4.4699    1.5094 H   0  0  0  0  0  0
    7.7682   -3.1133   -0.2297 H   0  0  0  0  0  0
    8.1381   -1.4496   -0.5199 H   0  0  0  0  0  0
    5.8235   -3.8198    0.6628 H   0  0  0  0  0  0
    4.4319   -2.8326    0.8694 H   0  0  0  0  0  0
    9.2480   -2.2457    1.5676 H   0  0  0  0  0  0
    8.0825   -0.9890    1.9685 H   0  0  0  0  0  0
    7.6898   -2.6831    2.2618 H   0  0  0  0  0  0
    4.1922   -4.3028   -1.1310 H   0  0  0  0  0  0
    4.1988   -2.6228   -1.6513 H   0  0  0  0  0  0
    5.6448   -3.6121   -1.8466 H   0  0  0  0  0  0
   -1.7475    7.9688    0.8249 H   0  0  0  0  0  0
   -1.4502    6.5255    1.7732 H   0  0  0  0  0  0
   -2.9018   -2.2792   -0.2963 N   0  3  1  0  0  0
   -3.1425   -2.5586    0.6442 H   0  0  0  0  0  0
  1 30  2  0  0  0
  2 33  2  0  0  0
  3 30  1  0  0  0
  3 31  1  0  0  0
  3 32  1  0  0  0
  4 28  2  0  0  0
  4 29  1  0  0  0
  5 33  1  0  0  0
  5 68  1  0  0  0
  5 69  1  0  0  0
  6  8  1  0  0  0
  6 36  1  0  0  0
  6 37  1  0  0  0
  6 70  1  0  0  0
  7  9  1  0  0  0
  7 38  1  0  0  0
  7 39  1  0  0  0
  7 70  1  0  0  0
  8 10  1  0  0  0
  8 40  1  0  0  0
  8 41  1  0  0  0
  9 10  1  0  0  0
  9 42  1  0  0  0
  9 43  1  0  0  0
 10 12  2  0  0  0
 11 15  1  0  0  0
 11 44  1  0  0  0
 11 45  1  0  0  0
 11 70  1  0  0  0
 12 13  1  0  0  0
 12 14  1  0  0  0
 13 16  2  0  0  0
 13 17  1  0  0  0
 14 18  2  0  0  0
 14 19  1  0  0  0
 15 20  2  0  0  0
 15 21  1  0  0  0
 16 22  1  0  0  0
 16 46  1  0  0  0
 17 23  2  0  0  0
 17 47  1  0  0  0
 18 25  1  0  0  0
 18 48  1  0  0  0
 19 26  2  0  0  0
 19 49  1  0  0  0
 20 28  1  0  0  0
 20 50  1  0  0  0
 21 29  2  0  0  0
 21 51  1  0  0  0
 22 24  2  0  0  0
 22 52  1  0  0  0
 23 24  1  0  0  0
 23 53  1  0  0  0
 24 30  1  0  0  0
 25 27  2  0  0  0
 25 54  1  0  0  0
 26 27  1  0  0  0
 26 55  1  0  0  0
 27 33  1  0  0  0
 28 56  1  0  0  0
 29 57  1  0  0  0
 31 34  1  0  0  0
 31 58  1  0  0  0
 31 59  1  0  0  0
 32 35  1  0  0  0
 32 60  1  0  0  0
 32 61  1  0  0  0
 34 62  1  0  0  0
 34 63  1  0  0  0
 34 64  1  0  0  0
 35 65  1  0  0  0
 35 66  1  0  0  0
 35 67  1  0  0  0
 70 71  1  0  0  0
M  CHG  1  70   1
M  END
> <LID>
L023461

> <PC_CID>
11340647

> <Names>


> <CAS_Numbers>


$$$$
6858272
                    3D
 Structure written by MMmdl.
 67 73  0  0  1  0            999 V2000
   -2.5674    0.7721    1.1367 O   0  0  0  0  0  0
   -2.8328   -2.1540    0.7571 O   0  0  0  0  0  0
   -0.3643   -3.7829   -1.6190 O   0  0  0  0  0  0
   -4.1226    3.2110    0.5040 O   0  0  0  0  0  0
    0.4883   -0.1376   -0.4894 C   0  0  1  0  0  0
   -0.2248    0.5717    0.6771 C   0  0  1  0  0  0
   -1.7033   -1.4535    0.2308 C   0  0  1  0  0  0
   -1.4966   -0.1973    1.1390 C   0  0  2  0  0  0
    1.6881    0.7886   -0.8517 C   0  0  1  0  0  0
    0.8542   -1.5755   -0.0425 C   0  0  0  0  0  0
   -0.4252   -2.3700    0.3964 C   0  0  2  0  0  0
   -0.4804   -0.3442   -1.7018 C   0  0  0  0  0  0
   -1.8067   -1.0030   -1.2510 C   0  0  0  0  0  0
    0.7205    0.8164    1.8850 C   0  0  0  0  0  0
   -0.7816    1.8529    0.1577 C   0  0  0  0  0  0
    1.2237    2.2315   -1.2674 C   0  0  0  0  0  0
    2.0469    1.4888    1.4996 C   0  0  0  0  0  0
   -0.1000    2.7500   -0.6797 C   0  0  0  0  0  0
   -0.4388   -3.8242   -0.2067 C   0  0  0  0  0  0
   -2.1066    1.9086    0.5331 C   0  0  0  0  0  0
    3.9843    1.3691   -0.0541 C   0  0  0  0  0  0
    5.0702    0.7787    0.8267 C   0  0  0  0  0  0
   -0.8233    3.9050   -1.0460 C   0  0  0  0  0  0
    0.7963   -4.6185    0.2711 C   0  0  0  0  0  0
   -1.6925   -4.6538    0.1330 C   0  0  0  0  0  0
   -2.8106    3.0714    0.1596 C   0  0  0  0  0  0
    6.5143    0.8261    0.3831 C   0  0  0  0  0  0
    5.7843   -0.4933    0.4307 C   0  0  0  0  0  0
   -4.1255   -1.7999    0.2813 C   0  0  0  0  0  0
   -2.1593    4.0767   -0.6005 C   0  0  0  0  0  0
   -1.3881   -0.5349    2.1709 H   0  0  0  0  0  0
    2.2209    0.3377   -1.6903 H   0  0  0  0  0  0
    1.5796   -1.5844    0.7701 H   0  0  0  0  0  0
    1.3674   -2.0633   -0.8710 H   0  0  0  0  0  0
   -0.3336   -2.5214    1.4733 H   0  0  0  0  0  0
    0.0011   -0.9732   -2.4517 H   0  0  0  0  0  0
   -0.7091    0.5829   -2.2257 H   0  0  0  0  0  0
   -2.6158   -0.2822   -1.3714 H   0  0  0  0  0  0
   -2.0558   -1.8389   -1.9038 H   0  0  0  0  0  0
    0.2150    1.4137    2.6451 H   0  0  0  0  0  0
    0.9476   -0.1328    2.3706 H   0  0  0  0  0  0
    2.0015    2.9746   -1.0943 H   0  0  0  0  0  0
    1.0791    2.2310   -2.3482 H   0  0  0  0  0  0
    2.7341    1.4220    2.3426 H   0  0  0  0  0  0
    1.8941    2.5537    1.3223 H   0  0  0  0  0  0
    4.0048    2.4563    0.0306 H   0  0  0  0  0  0
    4.2242    1.1331   -1.0919 H   0  0  0  0  0  0
    4.9178    0.9328    1.8928 H   0  0  0  0  0  0
   -0.3780    4.6363   -1.7044 H   0  0  0  0  0  0
    0.8028   -5.6311   -0.1343 H   0  0  0  0  0  0
    1.7356   -4.1550   -0.0292 H   0  0  0  0  0  0
    0.8089   -4.7062    1.3580 H   0  0  0  0  0  0
   -1.5793   -5.6933   -0.1770 H   0  0  0  0  0  0
   -1.8885   -4.6549    1.2056 H   0  0  0  0  0  0
   -2.5807   -4.2812   -0.3767 H   0  0  0  0  0  0
    7.2687    1.0106    1.1454 H   0  0  0  0  0  0
    6.7330    1.2427   -0.5984 H   0  0  0  0  0  0
    5.5175   -0.9534   -0.5189 H   0  0  0  0  0  0
    6.0511   -1.1874    1.2252 H   0  0  0  0  0  0
   -0.3682   -4.6693   -1.9467 H   0  0  0  0  0  0
   -4.8741   -2.3645    0.8365 H   0  0  0  0  0  0
   -4.3486   -0.7427    0.4137 H   0  0  0  0  0  0
   -4.2449   -2.0551   -0.7717 H   0  0  0  0  0  0
   -2.7072    4.9594   -0.8965 H   0  0  0  0  0  0
   -4.4459    2.4725    0.9976 H   0  0  0  0  0  0
    2.6403    0.8440    0.2989 N   0  3  2  0  0  0
    2.7974   -0.1226    0.5463 H   0  0  0  0  0  0
  1  8  1  0  0  0
  1 20  1  0  0  0
  2  7  1  0  0  0
  2 29  1  0  0  0
  3 19  1  0  0  0
  3 60  1  0  0  0
  4 26  1  0  0  0
  4 65  1  0  0  0
  5  6  1  0  0  0
  5  9  1  0  0  0
  5 10  1  0  0  0
  5 12  1  0  0  0
  6  8  1  0  0  0
  6 14  1  0  0  0
  6 15  1  0  0  0
  7  8  1  0  0  0
  7 11  1  0  0  0
  7 13  1  0  0  0
  8 31  1  0  0  0
  9 16  1  0  0  0
  9 32  1  0  0  0
  9 66  1  0  0  0
 10 11  1  0  0  0
 10 33  1  0  0  0
 10 34  1  0  0  0
 11 19  1  0  0  0
 11 35  1  0  0  0
 12 13  1  0  0  0
 12 36  1  0  0  0
 12 37  1  0  0  0
 13 38  1  0  0  0
 13 39  1  0  0  0
 14 17  1  0  0  0
 14 40  1  0  0  0
 14 41  1  0  0  0
 15 18  2  0  0  0
 15 20  1  0  0  0
 16 18  1  0  0  0
 16 42  1  0  0  0
 16 43  1  0  0  0
 17 44  1  0  0  0
 17 45  1  0  0  0
 17 66  1  0  0  0
 18 23  1  0  0  0
 19 24  1  0  0  0
 19 25  1  0  0  0
 20 26  2  0  0  0
 21 22  1  0  0  0
 21 46  1  0  0  0
 21 47  1  0  0  0
 21 66  1  0  0  0
 22 27  1  0  0  0
 22 28  1  0  0  0
 22 48  1  0  0  0
 23 30  2  0  0  0
 23 49  1  0  0  0
 24 50  1  0  0  0
 24 51  1  0  0  0
 24 52  1  0  0  0
 25 53  1  0  0  0
 25 54  1  0  0  0
 25 55  1  0  0  0
 26 30  1  0  0  0
 27 28  1  0  0  0
 27 56  1  0  0  0
 27 57  1  0  0  0
 28 58  1  0  0  0
 28 59  1  0  0  0
 29 61  1  0  0  0
 29 62  1  0  0  0
 29 63  1  0  0  0
 30 64  1  0  0  0
 66 67  1  0  0  0
M  CHG  1  66   1
M  END
> <LID>
L024020

> <PC_CID>
6858272

> <Names>
[3H]Diprenorphine

> <CAS_Numbers>


$$$$
22671403
                    3D
 Structure written by MMmdl.
 82 87  0  0  1  0            999 V2000
    5.0049   -5.8866    1.4502 O   0  0  0  0  0  0
   -5.1419    5.5045   -0.5905 O   0  0  0  0  0  0
   -4.2877   -2.8461    2.5574 O   0  0  0  0  0  0
    4.9453   -3.6984    0.7039 N   0  0  0  0  0  0
    6.8452   -4.5310    1.4024 N   0  0  0  0  0  0
   -3.1756    6.1030    0.3891 N   0  0  0  0  0  0
    3.5214   -3.5880    0.3525 C   0  0  0  0  0  0
    3.3050   -3.3212   -1.1481 C   0  0  0  0  0  0
    2.7867   -2.5334    1.2001 C   0  0  0  0  0  0
    1.8050   -3.2226   -1.4734 C   0  0  0  0  0  0
    1.3012   -2.4579    0.8092 C   0  0  0  0  0  0
   -0.2764   -1.9722   -1.0434 C   0  0  0  0  0  0
   -0.8004   -0.5771   -0.6471 C   0  0  0  0  0  0
   -2.2387   -0.3013   -1.1431 C   0  0  2  0  0  0
    5.9189   -2.6816    0.5780 C   0  0  0  0  0  0
    5.5432   -4.8080    1.2077 C   0  0  0  0  0  0
    7.1111   -3.2185    1.0212 C   0  0  0  0  0  0
   -2.6839    1.1355   -0.8896 C   0  0  0  0  0  0
   -3.2683   -1.3073   -0.6342 C   0  0  0  0  0  0
    5.8471   -1.3528    0.1167 C   0  0  0  0  0  0
    8.3110   -2.4908    1.0422 C   0  0  0  0  0  0
   -3.6561    7.4256    0.8224 C   0  0  0  0  0  0
   -1.7150    5.9510    0.5273 C   0  0  0  0  0  0
   -2.9827    8.5442    0.0094 C   0  0  0  0  0  0
   -0.9783    7.0367   -0.2789 C   0  0  0  0  0  0
   -1.4544    8.4451    0.1014 C   0  0  0  0  0  0
   -3.1765    1.9156   -1.9580 C   0  0  0  0  0  0
   -2.6262    1.7002    0.4039 C   0  0  0  0  0  0
    7.0404   -0.5925    0.1253 C   0  0  0  0  0  0
   -3.3454   -1.6463    0.7355 C   0  0  0  0  0  0
   -4.1632   -1.9104   -1.5424 C   0  0  0  0  0  0
   -3.5152    3.8133   -0.4527 C   0  0  0  0  0  0
    8.2598   -1.1547    0.5830 C   0  0  0  0  0  0
   -4.0010    5.2173   -0.2262 C   0  0  0  0  0  0
   -3.5952    3.2423   -1.7402 C   0  0  0  0  0  0
   -3.0453    3.0265    0.6224 C   0  0  0  0  0  0
   -4.2932   -2.5780    1.2054 C   0  0  0  0  0  0
   -5.1150   -2.8410   -1.0874 C   0  0  0  0  0  0
   -5.1819   -3.1764    0.2780 C   0  0  0  0  0  0
   -5.2392   -3.7735    3.0588 C   0  0  0  0  0  0
    3.0439   -4.5458    0.5685 H   0  0  0  0  0  0
    3.7559   -4.1216   -1.7361 H   0  0  0  0  0  0
    3.7966   -2.4008   -1.4590 H   0  0  0  0  0  0
    2.8749   -2.7814    2.2585 H   0  0  0  0  0  0
    3.2356   -1.5488    1.0795 H   0  0  0  0  0  0
    1.3194   -4.1862   -1.3098 H   0  0  0  0  0  0
    1.6879   -2.9854   -2.5316 H   0  0  0  0  0  0
    0.8003   -3.3941    1.0614 H   0  0  0  0  0  0
    0.8235   -1.6791    1.4022 H   0  0  0  0  0  0
   -0.3617   -2.0645   -2.1271 H   0  0  0  0  0  0
   -0.8957   -2.7644   -0.6202 H   0  0  0  0  0  0
   -0.7482   -0.4479    0.4325 H   0  0  0  0  0  0
   -0.1363    0.1777   -1.0705 H   0  0  0  0  0  0
   -2.2008   -0.4218   -2.2270 H   0  0  0  0  0  0
    7.5429   -5.1622    1.7680 H   0  0  0  0  0  0
    4.9270   -0.9130   -0.2339 H   0  0  0  0  0  0
    9.2329   -2.9307    1.3932 H   0  0  0  0  0  0
   -4.7403    7.5262    0.7558 H   0  0  0  0  0  0
   -3.4177    7.5472    1.8799 H   0  0  0  0  0  0
   -1.3404    4.9826    0.2010 H   0  0  0  0  0  0
   -1.4563    6.0322    1.5838 H   0  0  0  0  0  0
   -3.3150    9.5191    0.3671 H   0  0  0  0  0  0
   -3.2937    8.4739   -1.0338 H   0  0  0  0  0  0
   -1.1477    6.8720   -1.3439 H   0  0  0  0  0  0
    0.0975    6.9531   -0.1218 H   0  0  0  0  0  0
   -0.9877    9.1894   -0.5445 H   0  0  0  0  0  0
   -1.1363    8.6732    1.1195 H   0  0  0  0  0  0
   -3.2418    1.4994   -2.9527 H   0  0  0  0  0  0
   -2.2674    1.1203    1.2406 H   0  0  0  0  0  0
    7.0229    0.4304   -0.2214 H   0  0  0  0  0  0
   -2.6724   -1.1910    1.4459 H   0  0  0  0  0  0
   -4.1260   -1.6617   -2.5930 H   0  0  0  0  0  0
    9.1587   -0.5558    0.5808 H   0  0  0  0  0  0
   -3.9760    3.8219   -2.5690 H   0  0  0  0  0  0
   -3.0040    3.4376    1.6209 H   0  0  0  0  0  0
   -5.7973   -3.2993   -1.7881 H   0  0  0  0  0  0
   -5.9252   -3.8946    0.5888 H   0  0  0  0  0  0
   -5.1109   -3.8731    4.1365 H   0  0  0  0  0  0
   -6.2602   -3.4343    2.8786 H   0  0  0  0  0  0
   -5.1031   -4.7621    2.6182 H   0  0  0  0  0  0
    1.1387   -2.1830   -0.6448 N   0  3  0  0  0  0
    1.6226   -1.3179   -0.8391 H   0  0  0  0  0  0
  1 16  2  0  0  0
  2 34  2  0  0  0
  3 37  1  0  0  0
  3 40  1  0  0  0
  4  7  1  0  0  0
  4 15  1  0  0  0
  4 16  1  0  0  0
  5 16  1  0  0  0
  5 17  1  0  0  0
  5 55  1  0  0  0
  6 22  1  0  0  0
  6 23  1  0  0  0
  6 34  1  0  0  0
  7  8  1  0  0  0
  7  9  1  0  0  0
  7 41  1  0  0  0
  8 10  1  0  0  0
  8 42  1  0  0  0
  8 43  1  0  0  0
  9 11  1  0  0  0
  9 44  1  0  0  0
  9 45  1  0  0  0
 10 46  1  0  0  0
 10 47  1  0  0  0
 10 81  1  0  0  0
 11 48  1  0  0  0
 11 49  1  0  0  0
 11 81  1  0  0  0
 12 13  1  0  0  0
 12 50  1  0  0  0
 12 51  1  0  0  0
 12 81  1  0  0  0
 13 14  1  0  0  0
 13 52  1  0  0  0
 13 53  1  0  0  0
 14 18  1  0  0  0
 14 19  1  0  0  0
 14 54  1  0  0  0
 15 17  1  0  0  0
 15 20  2  0  0  0
 17 21  2  0  0  0
 18 27  2  0  0  0
 18 28  1  0  0  0
 19 30  2  0  0  0
 19 31  1  0  0  0
 20 29  1  0  0  0
 20 56  1  0  0  0
 21 33  1  0  0  0
 21 57  1  0  0  0
 22 24  1  0  0  0
 22 58  1  0  0  0
 22 59  1  0  0  0
 23 25  1  0  0  0
 23 60  1  0  0  0
 23 61  1  0  0  0
 24 26  1  0  0  0
 24 62  1  0  0  0
 24 63  1  0  0  0
 25 26  1  0  0  0
 25 64  1  0  0  0
 25 65  1  0  0  0
 26 66  1  0  0  0
 26 67  1  0  0  0
 27 35  1  0  0  0
 27 68  1  0  0  0
 28 36  2  0  0  0
 28 69  1  0  0  0
 29 33  2  0  0  0
 29 70  1  0  0  0
 30 37  1  0  0  0
 30 71  1  0  0  0
 31 38  2  0  0  0
 31 72  1  0  0  0
 32 34  1  0  0  0
 32 35  2  0  0  0
 32 36  1  0  0  0
 33 73  1  0  0  0
 35 74  1  0  0  0
 36 75  1  0  0  0
 37 39  2  0  0  0
 38 39  1  0  0  0
 38 76  1  0  0  0
 39 77  1  0  0  0
 40 78  1  0  0  0
 40 79  1  0  0  0
 40 80  1  0  0  0
 81 82  1  0  0  0
M  CHG  1  81   1
M  END
> <LID>
L020891

> <PC_CID>
22671403

> <Names>


> <CAS_Numbers>


$$$$
11428837
                    3D
 Structure written by MMmdl.
 57 60  0  0  1  0            999 V2000
   -4.0230    0.4084    0.8179 O   0  0  0  0  0  0
    5.1324    0.6678    1.4344 O   0  0  0  0  0  0
    5.2277   -0.5430   -0.4926 N   0  0  0  0  0  0
   -3.4552   -0.6844    0.0875 C   0  0  0  0  0  0
   -4.0113   -0.6242   -1.3522 C   0  0  0  0  0  0
   -3.9848   -1.9585    0.7821 C   0  0  0  0  0  0
   -3.7431   -1.9225   -2.1348 C   0  0  0  0  0  0
   -3.7438   -3.2355   -0.0470 C   0  0  0  0  0  0
   -1.9308   -0.6468    0.0858 C   0  0  0  0  0  0
   -1.2212    0.4757    0.2854 C   0  0  0  0  0  0
   -3.3665    1.6190    0.8158 C   0  0  0  0  0  0
   -1.9724    1.7109    0.5781 C   0  0  0  0  0  0
    0.2477    0.3962    0.3314 C   0  0  0  0  0  0
   -4.1100    2.7776    1.1164 C   0  0  0  0  0  0
   -1.3482    2.9790    0.6363 C   0  0  0  0  0  0
    0.8793   -0.3434    1.3527 C   0  0  0  0  0  0
    1.0257    1.0505   -0.6462 C   0  0  0  0  0  0
   -3.4808    4.0348    1.1648 C   0  0  0  0  0  0
   -2.0988    4.1346    0.9243 C   0  0  0  0  0  0
    2.2845   -0.4258    1.3963 C   0  0  0  0  0  0
    2.4306    0.9666   -0.6007 C   0  0  0  0  0  0
    3.0666    0.2151    0.4116 C   0  0  0  0  0  0
    4.5636    0.1320    0.4824 C   0  0  0  0  0  0
    6.6952   -0.6354   -0.4644 C   0  0  0  0  0  0
    4.5913   -1.3350   -1.5589 C   0  0  0  0  0  0
    7.1822   -1.7371    0.4901 C   0  0  0  0  0  0
    4.6210   -0.6196   -2.9194 C   0  0  0  0  0  0
   -3.5894    0.2286   -1.8859 H   0  0  0  0  0  0
   -5.0882   -0.4522   -1.3154 H   0  0  0  0  0  0
   -5.0579   -1.8537    0.9502 H   0  0  0  0  0  0
   -3.5360   -2.0628    1.7708 H   0  0  0  0  0  0
   -4.2029   -1.8677   -3.1218 H   0  0  0  0  0  0
   -2.6732   -2.0645   -2.2929 H   0  0  0  0  0  0
   -2.6802   -3.4668   -0.1090 H   0  0  0  0  0  0
   -4.2195   -4.0896    0.4356 H   0  0  0  0  0  0
   -1.4117   -1.5776   -0.0882 H   0  0  0  0  0  0
   -5.1696    2.7007    1.3113 H   0  0  0  0  0  0
   -0.2878    3.0846    0.4676 H   0  0  0  0  0  0
    0.2898   -0.8432    2.1076 H   0  0  0  0  0  0
    0.5481    1.6220   -1.4288 H   0  0  0  0  0  0
   -4.0564    4.9201    1.3919 H   0  0  0  0  0  0
   -1.6118    5.0979    0.9662 H   0  0  0  0  0  0
    2.7603   -0.9890    2.1864 H   0  0  0  0  0  0
    3.0156    1.4933   -1.3392 H   0  0  0  0  0  0
    7.0801   -0.8385   -1.4640 H   0  0  0  0  0  0
    7.1310    0.3237   -0.1791 H   0  0  0  0  0  0
    5.1178   -2.2860   -1.6502 H   0  0  0  0  0  0
    3.5669   -1.6124   -1.3101 H   0  0  0  0  0  0
    8.2703   -1.8022    0.4802 H   0  0  0  0  0  0
    6.8741   -1.5422    1.5176 H   0  0  0  0  0  0
    6.7900   -2.7128    0.2023 H   0  0  0  0  0  0
    4.1459   -1.2340   -3.6842 H   0  0  0  0  0  0
    4.0945    0.3323   -2.8927 H   0  0  0  0  0  0
    5.6410   -0.4224   -3.2487 H   0  0  0  0  0  0
   -4.2932   -3.0902   -1.4126 N   0  3  0  0  0  0
   -4.0915   -3.9285   -1.9394 H   0  0  0  0  0  0
   -5.2955   -2.9831   -1.3461 H   0  0  0  0  0  0
  1  4  1  0  0  0
  1 11  1  0  0  0
  2 23  2  0  0  0
  3 23  1  0  0  0
  3 24  1  0  0  0
  3 25  1  0  0  0
  4  5  1  0  0  0
  4  6  1  0  0  0
  4  9  1  0  0  0
  5  7  1  0  0  0
  5 28  1  0  0  0
  5 29  1  0  0  0
  6  8  1  0  0  0
  6 30  1  0  0  0
  6 31  1  0  0  0
  7 32  1  0  0  0
  7 33  1  0  0  0
  7 55  1  0  0  0
  8 34  1  0  0  0
  8 35  1  0  0  0
  8 55  1  0  0  0
  9 10  2  0  0  0
  9 36  1  0  0  0
 10 12  1  0  0  0
 10 13  1  0  0  0
 11 12  1  0  0  0
 11 14  2  0  0  0
 12 15  2  0  0  0
 13 16  2  0  0  0
 13 17  1  0  0  0
 14 18  1  0  0  0
 14 37  1  0  0  0
 15 19  1  0  0  0
 15 38  1  0  0  0
 16 20  1  0  0  0
 16 39  1  0  0  0
 17 21  2  0  0  0
 17 40  1  0  0  0
 18 19  2  0  0  0
 18 41  1  0  0  0
 19 42  1  0  0  0
 20 22  2  0  0  0
 20 43  1  0  0  0
 21 22  1  0  0  0
 21 44  1  0  0  0
 22 23  1  0  0  0
 24 26  1  0  0  0
 24 45  1  0  0  0
 24 46  1  0  0  0
 25 27  1  0  0  0
 25 47  1  0  0  0
 25 48  1  0  0  0
 26 49  1  0  0  0
 26 50  1  0  0  0
 26 51  1  0  0  0
 27 52  1  0  0  0
 27 53  1  0  0  0
 27 54  1  0  0  0
 55 56  1  0  0  0
 55 57  1  0  0  0
M  CHG  1  55   1
M  END
> <LID>
L023815

> <PC_CID>
11428837

> <Names>


> <CAS_Numbers>


$$$$
9905548
                    3D
 Structure written by MMmdl.
 46 48  0  0  1  0            999 V2000
   -3.7072    2.1724   -1.5290 O   0  0  0  0  0  0
    1.4528   -2.3928   -0.0309 C   0  0  0  0  0  0
    0.2230   -1.5155    0.1753 C   0  0  0  0  0  0
    2.4388   -2.3150    1.1474 C   0  0  0  0  0  0
    2.6977   -0.8884    1.6690 C   0  0  0  0  0  0
    0.2897   -0.1638    0.0658 C   0  0  0  0  0  0
    2.7536    0.1653    0.5710 C   0  0  0  0  0  0
    1.5881    0.5128   -0.1646 C   0  0  0  0  0  0
   -1.0503   -2.2852    0.5265 C   0  0  0  0  0  0
   -0.8927    0.6747    0.3163 C   0  0  0  0  0  0
    3.9767    0.8165    0.3041 C   0  0  0  0  0  0
    1.6778    1.5211   -1.1506 C   0  0  0  0  0  0
    4.0511    1.8147   -0.6843 C   0  0  0  0  0  0
    2.9001    2.1687   -1.4102 C   0  0  0  0  0  0
   -1.7496    1.0284   -0.7463 C   0  0  0  0  0  0
   -1.1439    1.1547    1.6180 C   0  0  0  0  0  0
   -2.5256   -4.1268   -0.1596 C   0  0  0  0  0  0
   -1.9766   -2.3651   -1.7724 C   0  0  0  0  0  0
   -2.8734    1.8412   -0.5014 C   0  0  0  0  0  0
   -2.2671    1.9694    1.8600 C   0  0  0  0  0  0
   -3.1331    2.3101    0.8022 C   0  0  0  0  0  0
    1.1672   -3.4303   -0.2055 H   0  0  0  0  0  0
    1.9532   -2.0758   -0.9472 H   0  0  0  0  0  0
    3.3839   -2.7485    0.8183 H   0  0  0  0  0  0
    2.0939   -2.9396    1.9721 H   0  0  0  0  0  0
    3.6162   -0.8733    2.2570 H   0  0  0  0  0  0
    1.9043   -0.6038    2.3615 H   0  0  0  0  0  0
   -0.8196   -2.9114    1.3896 H   0  0  0  0  0  0
   -1.8640   -1.6319    0.8409 H   0  0  0  0  0  0
    4.8649    0.5561    0.8610 H   0  0  0  0  0  0
    0.8067    1.8004   -1.7244 H   0  0  0  0  0  0
    4.9899    2.3105   -0.8831 H   0  0  0  0  0  0
    2.9546    2.9356   -2.1688 H   0  0  0  0  0  0
   -1.5480    0.6773   -1.7478 H   0  0  0  0  0  0
   -0.4798    0.8979    2.4307 H   0  0  0  0  0  0
   -2.7992   -4.7893   -0.9816 H   0  0  0  0  0  0
   -2.1365   -4.7480    0.6479 H   0  0  0  0  0  0
   -3.4301   -3.6309    0.1954 H   0  0  0  0  0  0
   -2.2850   -3.0345   -2.5762 H   0  0  0  0  0  0
   -2.8253   -1.7299   -1.5151 H   0  0  0  0  0  0
   -1.1808   -1.7329   -2.1663 H   0  0  0  0  0  0
   -2.4638    2.3344    2.8573 H   0  0  0  0  0  0
   -3.9928    2.9350    0.9955 H   0  0  0  0  0  0
   -4.4214    2.7320   -1.2646 H   0  0  0  0  0  0
   -1.5154   -3.1383   -0.5963 N   0  3  0  0  0  0
   -0.7131   -3.6720   -0.8997 H   0  0  0  0  0  0
  1 19  1  0  0  0
  1 44  1  0  0  0
  2  3  1  0  0  0
  2  4  1  0  0  0
  2 22  1  0  0  0
  2 23  1  0  0  0
  3  6  2  0  0  0
  3  9  1  0  0  0
  4  5  1  0  0  0
  4 24  1  0  0  0
  4 25  1  0  0  0
  5  7  1  0  0  0
  5 26  1  0  0  0
  5 27  1  0  0  0
  6  8  1  0  0  0
  6 10  1  0  0  0
  7  8  1  0  0  0
  7 11  2  0  0  0
  8 12  2  0  0  0
  9 28  1  0  0  0
  9 29  1  0  0  0
  9 45  1  0  0  0
 10 15  2  0  0  0
 10 16  1  0  0  0
 11 13  1  0  0  0
 11 30  1  0  0  0
 12 14  1  0  0  0
 12 31  1  0  0  0
 13 14  2  0  0  0
 13 32  1  0  0  0
 14 33  1  0  0  0
 15 19  1  0  0  0
 15 34  1  0  0  0
 16 20  2  0  0  0
 16 35  1  0  0  0
 17 36  1  0  0  0
 17 37  1  0  0  0
 17 38  1  0  0  0
 17 45  1  0  0  0
 18 39  1  0  0  0
 18 40  1  0  0  0
 18 41  1  0  0  0
 18 45  1  0  0  0
 19 21  2  0  0  0
 20 21  1  0  0  0
 20 42  1  0  0  0
 21 43  1  0  0  0
 45 46  1  0  0  0
M  CHG  1  45   1
M  END
> <LID>
L017982

> <PC_CID>
9905548

> <Names>


> <CAS_Numbers>


$$$$
9984678
                    3D
 Structure written by MMmdl.
 77 81  0  0  1  0            999 V2000
    2.9143    1.4874    1.8554 O   0  0  0  0  0  0
    5.4798    2.8910    0.3526 O   0  0  0  0  0  0
    7.4868    1.7727    0.3143 O   0  0  0  0  0  0
    3.7829   -1.6372    0.4052 N   0  0  0  0  0  0
    4.7549    0.2216    1.4180 N   0  0  0  0  0  0
   -3.6797    3.4630    0.7065 N   0  0  0  0  0  0
    2.7021   -0.6867    0.7442 C   0  0  0  0  0  0
    1.6863   -1.2902    1.7582 C   0  0  0  0  0  0
    1.9735   -0.1557   -0.5255 C   0  0  0  0  0  0
    0.4252   -0.4276    1.9641 C   0  0  0  0  0  0
    0.7006    0.6582   -0.2197 C   0  0  0  0  0  0
    3.4505    0.4728    1.4102 C   0  0  0  0  0  0
    5.0658   -1.0638    0.8311 C   0  0  0  0  0  0
   -1.5318    0.5845    0.8616 C   0  0  0  0  0  0
    3.7090   -2.8618   -0.2058 C   0  0  0  0  0  0
   -2.4507    0.4608   -0.3765 C   0  0  0  0  0  0
    5.8116    1.1011    1.9099 C   0  0  0  0  0  0
   -3.9007    0.9892   -0.1812 C   0  0  0  0  0  0
    4.8896   -3.6210   -0.4280 C   0  0  0  0  0  0
    2.4845   -3.4325   -0.6430 C   0  0  0  0  0  0
    6.3603    1.9625    0.7728 C   0  0  0  0  0  0
   -4.6206    0.9485   -1.5392 C   0  0  0  0  0  0
   -4.7276    0.1893    0.8449 C   0  0  0  0  0  0
    4.8495   -4.8822   -1.0529 C   0  0  0  0  0  0
    2.4411   -4.6936   -1.2682 C   0  0  0  0  0  0
   -3.7792    2.3777    0.3153 C   0  0  0  0  0  0
    3.6239   -5.4219   -1.4748 C   0  0  0  0  0  0
   -4.9554   -0.2998   -2.1162 C   0  0  0  0  0  0
   -5.8834    0.7796    1.4104 C   0  0  0  0  0  0
   -4.9509    2.1299   -2.2484 C   0  0  0  0  0  0
   -4.4006   -1.1386    1.2188 C   0  0  0  0  0  0
   -5.6097   -0.3688   -3.3609 C   0  0  0  0  0  0
   -6.6751    0.0777    2.3392 C   0  0  0  0  0  0
   -5.6054    2.0609   -3.4937 C   0  0  0  0  0  0
   -5.1919   -1.8410    2.1481 C   0  0  0  0  0  0
    5.7898    3.7348   -0.7469 C   0  0  0  0  0  0
   -5.9365    0.8125   -4.0507 C   0  0  0  0  0  0
   -6.3279   -1.2330    2.7118 C   0  0  0  0  0  0
    5.4094    3.0555   -2.0690 C   0  0  0  0  0  0
    1.3612   -2.2835    1.4631 H   0  0  0  0  0  0
    2.1720   -1.4425    2.7236 H   0  0  0  0  0  0
    2.6554    0.4626   -1.1125 H   0  0  0  0  0  0
    1.6960   -0.9608   -1.1995 H   0  0  0  0  0  0
    0.6551    0.4888    2.5080 H   0  0  0  0  0  0
   -0.2728   -0.9842    2.5909 H   0  0  0  0  0  0
    0.2110    0.8876   -1.1651 H   0  0  0  0  0  0
    0.9462    1.6196    0.2318 H   0  0  0  0  0  0
    5.7358   -0.9309   -0.0201 H   0  0  0  0  0  0
    5.5516   -1.6986    1.5739 H   0  0  0  0  0  0
   -2.0363    0.1375    1.7177 H   0  0  0  0  0  0
   -1.3624    1.6293    1.1259 H   0  0  0  0  0  0
   -2.0043    1.0346   -1.1889 H   0  0  0  0  0  0
   -2.4601   -0.5689   -0.7336 H   0  0  0  0  0  0
    5.4319    1.7444    2.7045 H   0  0  0  0  0  0
    6.6173    0.5027    2.3360 H   0  0  0  0  0  0
    5.8602   -3.2591   -0.1259 H   0  0  0  0  0  0
    1.5410   -2.9315   -0.5178 H   0  0  0  0  0  0
    5.7638   -5.4360   -1.2081 H   0  0  0  0  0  0
    1.4949   -5.1029   -1.5904 H   0  0  0  0  0  0
    3.5912   -6.3893   -1.9543 H   0  0  0  0  0  0
   -4.7114   -1.2189   -1.6046 H   0  0  0  0  0  0
   -6.1775    1.7806    1.1301 H   0  0  0  0  0  0
   -4.7109    3.1070   -1.8582 H   0  0  0  0  0  0
   -3.5458   -1.6466    0.8021 H   0  0  0  0  0  0
   -5.8607   -1.3293   -3.7866 H   0  0  0  0  0  0
   -7.5520    0.5449    2.7630 H   0  0  0  0  0  0
   -5.8531    2.9693   -4.0231 H   0  0  0  0  0  0
   -4.9288   -2.8511    2.4259 H   0  0  0  0  0  0
    5.2224    4.6589   -0.6362 H   0  0  0  0  0  0
    6.8446    4.0137   -0.7428 H   0  0  0  0  0  0
   -6.4385    0.7612   -5.0057 H   0  0  0  0  0  0
   -6.9355   -1.7732    3.4230 H   0  0  0  0  0  0
    5.6077    3.7155   -2.9135 H   0  0  0  0  0  0
    5.9793    2.1389   -2.2230 H   0  0  0  0  0  0
    4.3499    2.7990   -2.0863 H   0  0  0  0  0  0
   -0.2234   -0.0932    0.6702 N   0  3  0  0  0  0
   -0.4208   -0.9747    0.2183 H   0  0  0  0  0  0
  1 12  2  0  0  0
  2 21  1  0  0  0
  2 36  1  0  0  0
  3 21  2  0  0  0
  4  7  1  0  0  0
  4 13  1  0  0  0
  4 15  1  0  0  0
  5 12  1  0  0  0
  5 13  1  0  0  0
  5 17  1  0  0  0
  6 26  3  0  0  0
  7  8  1  0  0  0
  7  9  1  0  0  0
  7 12  1  0  0  0
  8 10  1  0  0  0
  8 40  1  0  0  0
  8 41  1  0  0  0
  9 11  1  0  0  0
  9 42  1  0  0  0
  9 43  1  0  0  0
 10 44  1  0  0  0
 10 45  1  0  0  0
 10 76  1  0  0  0
 11 46  1  0  0  0
 11 47  1  0  0  0
 11 76  1  0  0  0
 13 48  1  0  0  0
 13 49  1  0  0  0
 14 16  1  0  0  0
 14 50  1  0  0  0
 14 51  1  0  0  0
 14 76  1  0  0  0
 15 19  2  0  0  0
 15 20  1  0  0  0
 16 18  1  0  0  0
 16 52  1  0  0  0
 16 53  1  0  0  0
 17 21  1  0  0  0
 17 54  1  0  0  0
 17 55  1  0  0  0
 18 22  1  0  0  0
 18 23  1  0  0  0
 18 26  1  0  0  0
 19 24  1  0  0  0
 19 56  1  0  0  0
 20 25  2  0  0  0
 20 57  1  0  0  0
 22 28  2  0  0  0
 22 30  1  0  0  0
 23 29  2  0  0  0
 23 31  1  0  0  0
 24 27  2  0  0  0
 24 58  1  0  0  0
 25 27  1  0  0  0
 25 59  1  0  0  0
 27 60  1  0  0  0
 28 32  1  0  0  0
 28 61  1  0  0  0
 29 33  1  0  0  0
 29 62  1  0  0  0
 30 34  2  0  0  0
 30 63  1  0  0  0
 31 35  2  0  0  0
 31 64  1  0  0  0
 32 37  2  0  0  0
 32 65  1  0  0  0
 33 38  2  0  0  0
 33 66  1  0  0  0
 34 37  1  0  0  0
 34 67  1  0  0  0
 35 38  1  0  0  0
 35 68  1  0  0  0
 36 39  1  0  0  0
 36 69  1  0  0  0
 36 70  1  0  0  0
 37 71  1  0  0  0
 38 72  1  0  0  0
 39 73  1  0  0  0
 39 74  1  0  0  0
 39 75  1  0  0  0
 76 77  1  0  0  0
M  CHG  1  76   1
M  END
> <LID>
L022591

> <PC_CID>
9984678

> <Names>


> <CAS_Numbers>


$$$$
10206149
                    3D
 Structure written by MMmdl.
 76 79  0  0  1  0            999 V2000
    5.5767    0.1790    1.4737 O   0  0  0  0  0  0
    5.0447   -1.5648    0.0883 N   0  0  0  0  0  0
   -0.2450    6.0534   -1.9478 N   0  0  0  0  0  0
   -4.0116    0.9538   -0.2761 C   0  0  0  0  0  0
   -2.6170   -1.0722   -0.1586 C   0  0  0  0  0  0
   -3.1119    1.6704    0.7441 C   0  0  0  0  0  0
   -1.6815   -0.4041    0.8627 C   0  0  0  0  0  0
   -1.6920    1.1142    0.7179 C   0  0  0  0  0  0
   -4.9562   -1.2065   -0.9836 C   0  0  0  0  0  0
   -0.5777    1.8732    0.5610 C   0  0  0  0  0  0
    0.7679    1.2793    0.6082 C   0  0  0  0  0  0
   -0.6510    3.3416    0.4919 C   0  0  0  0  0  0
   -5.2321   -2.6347   -0.5471 C   0  0  0  0  0  0
    6.4815   -1.9602   -0.0064 C   0  0  0  0  0  0
    3.9757   -2.4771   -0.4214 C   0  0  0  0  0  0
    1.5415    1.1604   -0.5654 C   0  0  0  0  0  0
    1.3135    0.8574    1.8394 C   0  0  0  0  0  0
    3.3661    0.1526    0.7140 C   0  0  0  0  0  0
    4.7510   -0.4263    0.7876 C   0  0  0  0  0  0
   -0.4123    4.0145   -0.7258 C   0  0  0  0  0  0
   -0.9293    4.0931    1.6542 C   0  0  0  0  0  0
    2.8338    0.6038   -0.5133 C   0  0  0  0  0  0
    2.6059    0.3012    1.8932 C   0  0  0  0  0  0
   -4.6370   -3.7172   -1.2300 C   0  0  0  0  0  0
   -6.0902   -2.8855    0.5447 C   0  0  0  0  0  0
    6.9517   -2.7874    1.2070 C   0  0  0  0  0  0
    6.9108   -2.5901   -1.3433 C   0  0  0  0  0  0
    3.8135   -2.4503   -1.9543 C   0  0  0  0  0  0
    4.0592   -3.9084    0.1376 C   0  0  0  0  0  0
   -0.4669    5.4218   -0.7859 C   0  0  0  0  0  0
   -0.9844    5.4989    1.5966 C   0  0  0  0  0  0
   -4.8938   -5.0399   -0.8197 C   0  0  0  0  0  0
   -6.3466   -4.2086    0.9540 C   0  0  0  0  0  0
   -0.7549    6.1637    0.3769 C   0  0  0  0  0  0
   -5.7480   -5.2858    0.2725 C   0  0  0  0  0  0
   -5.0317    1.3269   -0.1761 H   0  0  0  0  0  0
   -3.6861    1.1918   -1.2903 H   0  0  0  0  0  0
   -2.6297   -2.1454    0.0312 H   0  0  0  0  0  0
   -2.2239   -0.9351   -1.1674 H   0  0  0  0  0  0
   -3.5118    1.5304    1.7491 H   0  0  0  0  0  0
   -3.1432    2.7416    0.5504 H   0  0  0  0  0  0
   -0.6833   -0.8262    0.7549 H   0  0  0  0  0  0
   -2.0080   -0.6495    1.8740 H   0  0  0  0  0  0
   -5.9078   -0.6727   -0.9846 H   0  0  0  0  0  0
   -4.5893   -1.1857   -2.0111 H   0  0  0  0  0  0
    7.0767   -1.0451    0.0171 H   0  0  0  0  0  0
    3.0112   -2.1458   -0.0409 H   0  0  0  0  0  0
    1.1461    1.4949   -1.5130 H   0  0  0  0  0  0
    0.7393    0.9608    2.7486 H   0  0  0  0  0  0
   -0.1934    3.4467   -1.6184 H   0  0  0  0  0  0
   -1.1022    3.5903    2.5947 H   0  0  0  0  0  0
    3.4168    0.5361   -1.4194 H   0  0  0  0  0  0
    3.0093   -0.0169    2.8440 H   0  0  0  0  0  0
   -3.9798   -3.5381   -2.0686 H   0  0  0  0  0  0
   -6.5545   -2.0651    1.0725 H   0  0  0  0  0  0
    8.0373   -2.8875    1.2038 H   0  0  0  0  0  0
    6.6758   -2.3112    2.1481 H   0  0  0  0  0  0
    6.5415   -3.7952    1.2119 H   0  0  0  0  0  0
    7.9967   -2.6779   -1.3882 H   0  0  0  0  0  0
    6.5140   -3.5929   -1.4861 H   0  0  0  0  0  0
    6.6097   -1.9703   -2.1880 H   0  0  0  0  0  0
    2.8306   -2.8277   -2.2377 H   0  0  0  0  0  0
    3.9025   -1.4428   -2.3574 H   0  0  0  0  0  0
    4.5405   -3.0778   -2.4657 H   0  0  0  0  0  0
    4.9061   -4.4674   -0.2547 H   0  0  0  0  0  0
    3.1634   -4.4727   -0.1234 H   0  0  0  0  0  0
    4.1281   -3.9018    1.2258 H   0  0  0  0  0  0
   -1.2008    6.0678    2.4888 H   0  0  0  0  0  0
   -4.4360   -5.8664   -1.3433 H   0  0  0  0  0  0
   -7.0033   -4.3977    1.7905 H   0  0  0  0  0  0
   -0.7987    7.2427    0.3408 H   0  0  0  0  0  0
   -5.9452   -6.3004    0.5864 H   0  0  0  0  0  0
   -0.1797    7.0605   -1.9881 H   0  0  0  0  0  0
    0.0659    5.5484   -2.7652 H   0  0  0  0  0  0
   -3.9950   -0.5186   -0.0853 N   0  3  2  0  0  0
   -4.3225   -0.6847    0.8557 H   0  0  0  0  0  0
  1 19  2  0  0  0
  2 14  1  0  0  0
  2 15  1  0  0  0
  2 19  1  0  0  0
  3 30  1  0  0  0
  3 73  1  0  0  0
  3 74  1  0  0  0
  4  6  1  0  0  0
  4 36  1  0  0  0
  4 37  1  0  0  0
  4 75  1  0  0  0
  5  7  1  0  0  0
  5 38  1  0  0  0
  5 39  1  0  0  0
  5 75  1  0  0  0
  6  8  1  0  0  0
  6 40  1  0  0  0
  6 41  1  0  0  0
  7  8  1  0  0  0
  7 42  1  0  0  0
  7 43  1  0  0  0
  8 10  2  0  0  0
  9 13  1  0  0  0
  9 44  1  0  0  0
  9 45  1  0  0  0
  9 75  1  0  0  0
 10 11  1  0  0  0
 10 12  1  0  0  0
 11 16  2  0  0  0
 11 17  1  0  0  0
 12 20  2  0  0  0
 12 21  1  0  0  0
 13 24  2  0  0  0
 13 25  1  0  0  0
 14 26  1  0  0  0
 14 27  1  0  0  0
 14 46  1  0  0  0
 15 28  1  0  0  0
 15 29  1  0  0  0
 15 47  1  0  0  0
 16 22  1  0  0  0
 16 48  1  0  0  0
 17 23  2  0  0  0
 17 49  1  0  0  0
 18 19  1  0  0  0
 18 22  2  0  0  0
 18 23  1  0  0  0
 20 30  1  0  0  0
 20 50  1  0  0  0
 21 31  2  0  0  0
 21 51  1  0  0  0
 22 52  1  0  0  0
 23 53  1  0  0  0
 24 32  1  0  0  0
 24 54  1  0  0  0
 25 33  2  0  0  0
 25 55  1  0  0  0
 26 56  1  0  0  0
 26 57  1  0  0  0
 26 58  1  0  0  0
 27 59  1  0  0  0
 27 60  1  0  0  0
 27 61  1  0  0  0
 28 62  1  0  0  0
 28 63  1  0  0  0
 28 64  1  0  0  0
 29 65  1  0  0  0
 29 66  1  0  0  0
 29 67  1  0  0  0
 30 34  2  0  0  0
 31 34  1  0  0  0
 31 68  1  0  0  0
 32 35  2  0  0  0
 32 69  1  0  0  0
 33 35  1  0  0  0
 33 70  1  0  0  0
 34 71  1  0  0  0
 35 72  1  0  0  0
 75 76  1  0  0  0
M  CHG  1  75   1
M  END
> <LID>
L021988

> <PC_CID>
10206149

> <Names>


> <CAS_Numbers>


$$$$
22452703
                    3D
 Structure written by MMmdl.
 49 53  0  0  1  0            999 V2000
   -4.4943   -0.5811   -0.2062 S   0  0  0  0  0  0
   -0.3563   -1.0421   -0.8636 O   0  0  0  0  0  0
   -3.2684    0.4413   -0.7611 O   0  0  0  0  0  0
    0.9145   -3.2917    0.6657 O   0  0  0  0  0  0
   -3.9097   -1.9251   -0.3360 O   0  0  0  0  0  0
   -4.7237   -0.1355    1.1772 O   0  0  0  0  0  0
    1.9390   -3.4876   -1.3894 O   0  0  0  0  0  0
    0.3487    1.2001   -0.6875 C   0  0  1  0  0  0
    0.0616    2.6026   -0.1321 C   0  0  2  0  0  0
    1.4037    3.1703    0.3854 C   0  0  1  0  0  0
   -0.8765    0.2961   -1.0063 C   0  0  2  0  0  0
    1.2510    1.3963   -1.9306 C   0  0  0  0  0  0
    1.0609    0.3356    0.3075 C   0  0  0  0  0  0
    2.0322    2.2786    1.4993 C   0  0  0  0  0  0
    2.5622    2.1326   -1.5815 C   0  0  0  0  0  0
   -2.0654    0.4305   -0.0073 C   0  0  1  0  0  0
    1.9473    0.7647    1.3045 C   0  0  0  0  0  0
   -1.0730    2.6006    0.8689 C   0  0  0  0  0  0
    0.6460   -0.9584    0.0646 C   0  0  0  0  0  0
   -2.0131    1.6443    0.9102 C   0  0  0  0  0  0
    3.5382    4.1333   -0.5036 C   0  0  0  0  0  0
    2.5333   -0.2582    2.0794 C   0  0  0  0  0  0
    1.2643   -1.9745    0.8282 C   0  0  0  0  0  0
    2.2061   -1.6157    1.8282 C   0  0  0  0  0  0
    1.2682   -3.9431   -0.4617 C   0  0  0  0  0  0
    0.7437   -5.3723   -0.4909 C   0  0  0  0  0  0
   -0.3008    3.2443   -0.9373 H   0  0  0  0  0  0
    1.2241    4.1620    0.8034 H   0  0  0  0  0  0
   -1.2243    0.4698   -2.0257 H   0  0  0  0  0  0
    1.4877    0.4356   -2.3905 H   0  0  0  0  0  0
    0.7089    1.9637   -2.6885 H   0  0  0  0  0  0
    3.0666    2.5526    1.7003 H   0  0  0  0  0  0
    1.5007    2.4835    2.4292 H   0  0  0  0  0  0
    3.2345    1.4757   -1.0284 H   0  0  0  0  0  0
    3.0856    2.3941   -2.5019 H   0  0  0  0  0  0
   -2.0551   -0.4277    0.6667 H   0  0  0  0  0  0
   -1.1272    3.4338    1.5542 H   0  0  0  0  0  0
   -2.8042    1.7182    1.6421 H   0  0  0  0  0  0
    4.0251    4.4276   -1.4338 H   0  0  0  0  0  0
    3.3115    5.0440    0.0517 H   0  0  0  0  0  0
    4.2536    3.5462    0.0722 H   0  0  0  0  0  0
    3.2131   -0.0076    2.8805 H   0  0  0  0  0  0
    2.6582   -2.3884    2.4325 H   0  0  0  0  0  0
    1.0518   -5.8745   -1.4081 H   0  0  0  0  0  0
    1.1303   -5.9351    0.3588 H   0  0  0  0  0  0
   -0.3454   -5.3756   -0.4439 H   0  0  0  0  0  0
   -5.6029   -0.3029   -1.1316 O   0  5  0  0  0  0
    2.3042    3.3676   -0.7940 N   0  3  2  0  0  0
    1.7736    3.9630   -1.4141 H   0  0  0  0  0  0
  1  3  1  0  0  0
  1  5  2  0  0  0
  1  6  2  0  0  0
  1 47  1  0  0  0
  2 11  1  0  0  0
  2 19  1  0  0  0
  3 16  1  0  0  0
  4 23  1  0  0  0
  4 25  1  0  0  0
  7 25  2  0  0  0
  8  9  1  0  0  0
  8 11  1  0  0  0
  8 12  1  0  0  0
  8 13  1  0  0  0
  9 10  1  0  0  0
  9 18  1  0  0  0
  9 27  1  0  0  0
 10 14  1  0  0  0
 10 28  1  0  0  0
 10 48  1  0  0  0
 11 16  1  0  0  0
 11 29  1  0  0  0
 12 15  1  0  0  0
 12 30  1  0  0  0
 12 31  1  0  0  0
 13 17  2  0  0  0
 13 19  1  0  0  0
 14 17  1  0  0  0
 14 32  1  0  0  0
 14 33  1  0  0  0
 15 34  1  0  0  0
 15 35  1  0  0  0
 15 48  1  0  0  0
 16 20  1  0  0  0
 16 36  1  0  0  0
 17 22  1  0  0  0
 18 20  2  0  0  0
 18 37  1  0  0  0
 19 23  2  0  0  0
 20 38  1  0  0  0
 21 39  1  0  0  0
 21 40  1  0  0  0
 21 41  1  0  0  0
 21 48  1  0  0  0
 22 24  2  0  0  0
 22 42  1  0  0  0
 23 24  1  0  0  0
 24 43  1  0  0  0
 25 26  1  0  0  0
 26 44  1  0  0  0
 26 45  1  0  0  0
 26 46  1  0  0  0
 48 49  1  0  0  0
M  CHG  2  47  -1  48   1
M  END
> <LID>
L021553

> <PC_CID>
22452703

> <Names>


> <CAS_Numbers>


$$$$
19143
                    3D
 Structure written by MMmdl.
 46 49  0  0  1  0            999 V2000
    4.7678    1.4665    1.1335 O   0  0  0  0  0  0
    0.8161   -1.4905    0.4621 C   0  0  2  0  0  0
   -0.0433   -1.9550   -0.7543 C   0  0  2  0  0  0
   -0.9042   -0.7719   -1.2350 C   0  0  2  0  0  0
   -0.1474   -1.0418    1.5849 C   0  0  0  0  0  0
   -4.0402    0.7044    0.3260 C   0  0  0  0  0  0
   -1.1119    0.0662    1.1190 C   0  0  0  0  0  0
   -2.8182    0.6917   -0.5736 C   0  0  0  0  0  0
    0.0131    0.3309   -1.8056 C   0  0  0  0  0  0
    1.6819   -0.2754    0.0580 C   0  0  0  0  0  0
   -5.0884    1.7803    0.1542 C   0  0  0  0  0  0
   -4.2235    1.7656    1.3885 C   0  0  0  0  0  0
    1.2808    0.5840   -1.0026 C   0  0  0  0  0  0
    1.6916   -2.6660    0.9655 C   0  0  0  0  0  0
   -0.9042   -3.2240   -0.5527 C   0  0  0  0  0  0
    2.8596    0.0500    0.7769 C   0  0  0  0  0  0
    2.0634    1.7068   -1.3433 C   0  0  0  0  0  0
    3.6345    1.1740    0.4323 C   0  0  0  0  0  0
    3.2389    2.0010   -0.6322 C   0  0  0  0  0  0
    0.6463   -2.2052   -1.5629 H   0  0  0  0  0  0
   -1.5438   -1.1139   -2.0502 H   0  0  0  0  0  0
    0.4206   -0.6839    2.4448 H   0  0  0  0  0  0
   -0.7240   -1.8909    1.9518 H   0  0  0  0  0  0
   -4.4331   -0.2856    0.5516 H   0  0  0  0  0  0
   -1.8420    0.2464    1.9080 H   0  0  0  0  0  0
   -0.5820    1.0090    0.9801 H   0  0  0  0  0  0
   -3.1605    0.4507   -1.5808 H   0  0  0  0  0  0
   -2.3779    1.6888   -0.6186 H   0  0  0  0  0  0
   -0.5262    1.2669   -1.9489 H   0  0  0  0  0  0
    0.3382    0.0259   -2.8012 H   0  0  0  0  0  0
   -6.1309    1.4896    0.2680 H   0  0  0  0  0  0
   -4.9002    2.5618   -0.5794 H   0  0  0  0  0  0
   -3.4603    2.5366    1.4755 H   0  0  0  0  0  0
   -4.6876    1.4626    2.3249 H   0  0  0  0  0  0
    2.2503   -2.4178    1.8663 H   0  0  0  0  0  0
    1.0943   -3.5341    1.2396 H   0  0  0  0  0  0
    2.4053   -2.9832    0.2044 H   0  0  0  0  0  0
   -0.2930   -4.1084   -0.3770 H   0  0  0  0  0  0
   -1.6056   -3.1300    0.2753 H   0  0  0  0  0  0
   -1.4914   -3.4350   -1.4469 H   0  0  0  0  0  0
    3.1853   -0.5474    1.6130 H   0  0  0  0  0  0
    1.7603    2.3518   -2.1552 H   0  0  0  0  0  0
    3.8307    2.8643   -0.8994 H   0  0  0  0  0  0
    4.9500    0.8487    1.8249 H   0  0  0  0  0  0
   -1.8133   -0.3110   -0.1379 N   0  3  1  0  0  0
   -2.3514   -1.1331    0.0959 H   0  0  0  0  0  0
  1 18  1  0  0  0
  1 44  1  0  0  0
  2  3  1  0  0  0
  2  5  1  0  0  0
  2 10  1  0  0  0
  2 14  1  0  0  0
  3  4  1  0  0  0
  3 15  1  0  0  0
  3 20  1  0  0  0
  4  9  1  0  0  0
  4 21  1  0  0  0
  4 45  1  0  0  0
  5  7  1  0  0  0
  5 22  1  0  0  0
  5 23  1  0  0  0
  6  8  1  0  0  0
  6 11  1  0  0  0
  6 12  1  0  0  0
  6 24  1  0  0  0
  7 25  1  0  0  0
  7 26  1  0  0  0
  7 45  1  0  0  0
  8 27  1  0  0  0
  8 28  1  0  0  0
  8 45  1  0  0  0
  9 13  1  0  0  0
  9 29  1  0  0  0
  9 30  1  0  0  0
 10 13  2  0  0  0
 10 16  1  0  0  0
 11 12  1  0  0  0
 11 31  1  0  0  0
 11 32  1  0  0  0
 12 33  1  0  0  0
 12 34  1  0  0  0
 13 17  1  0  0  0
 14 35  1  0  0  0
 14 36  1  0  0  0
 14 37  1  0  0  0
 15 38  1  0  0  0
 15 39  1  0  0  0
 15 40  1  0  0  0
 16 18  2  0  0  0
 16 41  1  0  0  0
 17 19  2  0  0  0
 17 42  1  0  0  0
 18 19  1  0  0  0
 19 43  1  0  0  0
 45 46  1  0  0  0
M  CHG  1  45   1
M  END
> <LID>
L001209

> <PC_CID>
19143

> <Names>
Cyclazocine

> <CAS_Numbers>
3572-80-3;63903-61-7;7346-09-0

$$$$
10205502
                    3D
 Structure written by MMmdl.
 69 72  0  0  1  0            999 V2000
   -6.5196   -5.2280    0.4804 O   0  0  0  0  0  0
    5.6159    1.2387   -1.6955 O   0  0  0  0  0  0
   -1.9175    4.4538   -2.5047 O   0  0  0  0  0  0
    6.1039   -0.3743   -0.1627 N   0  0  0  0  0  0
   -1.6562    6.1913   -1.1030 N   0  0  0  0  0  0
   -1.3087   -2.9122   -0.5397 C   0  0  0  0  0  0
   -3.3497   -1.5939   -0.1216 C   0  0  0  0  0  0
   -0.5388   -2.0980    0.5120 C   0  0  0  0  0  0
   -2.6170   -0.7436    0.9306 C   0  0  0  0  0  0
   -1.1187   -0.6948    0.6517 C   0  0  0  0  0  0
   -3.4988   -3.8357   -1.1804 C   0  0  0  0  0  0
   -0.3977    0.4495    0.5307 C   0  0  0  0  0  0
    1.0359    0.4314    0.1975 C   0  0  0  0  0  0
   -1.0046    1.7767    0.7263 C   0  0  0  0  0  0
   -4.8679   -4.2043   -0.6666 C   0  0  0  0  0  0
    1.4678    0.0525   -1.0918 C   0  0  0  0  0  0
    1.9899    0.8449    1.1505 C   0  0  0  0  0  0
   -1.1015    2.6742   -0.3580 C   0  0  0  0  0  0
   -1.4574    2.1802    2.0005 C   0  0  0  0  0  0
   -6.1187   -3.6286   -1.0353 C   0  0  0  0  0  0
   -5.1799   -5.1703    0.2519 C   0  0  0  0  0  0
    3.7950    0.4334   -0.4479 C   0  0  0  0  0  0
    2.8384    0.0562   -1.4138 C   0  0  0  0  0  0
    3.3610    0.8493    0.8300 C   0  0  0  0  0  0
   -1.6563    3.9618   -0.1854 C   0  0  0  0  0  0
   -2.0231    3.4559    2.1809 C   0  0  0  0  0  0
   -7.0790   -4.2793   -0.3145 C   0  0  0  0  0  0
   -2.1285    4.3421    1.0922 C   0  0  0  0  0  0
    5.2512    0.4600   -0.8138 C   0  0  0  0  0  0
    7.5479   -0.3290   -0.4356 C   0  0  0  0  0  0
    5.6972   -1.4382    0.7704 C   0  0  0  0  0  0
   -1.7753    4.8867   -1.3630 C   0  0  0  0  0  0
    8.2506    0.7106    0.4486 C   0  0  0  0  0  0
    5.2011   -2.6869    0.0266 C   0  0  0  0  0  0
   -0.9085   -3.9265   -0.5697 H   0  0  0  0  0  0
   -1.1543   -2.4814   -1.5305 H   0  0  0  0  0  0
   -3.3076   -1.0974   -1.0925 H   0  0  0  0  0  0
   -4.4025   -1.6583    0.1530 H   0  0  0  0  0  0
    0.5225   -2.0955    0.2698 H   0  0  0  0  0  0
   -0.6181   -2.5906    1.4819 H   0  0  0  0  0  0
   -2.7663   -1.1731    1.9219 H   0  0  0  0  0  0
   -3.0693    0.2465    0.9548 H   0  0  0  0  0  0
   -3.5845   -3.3567   -2.1569 H   0  0  0  0  0  0
   -2.9454   -4.7636   -1.3314 H   0  0  0  0  0  0
    0.7453   -0.2415   -1.8392 H   0  0  0  0  0  0
    1.6710    1.1616    2.1329 H   0  0  0  0  0  0
   -0.7443    2.3676   -1.3310 H   0  0  0  0  0  0
   -1.3760    1.5078    2.8421 H   0  0  0  0  0  0
   -6.2949   -2.8318   -1.7429 H   0  0  0  0  0  0
   -4.5935   -5.8783    0.8191 H   0  0  0  0  0  0
    3.1533   -0.2362   -2.4053 H   0  0  0  0  0  0
    4.0785    1.1745    1.5697 H   0  0  0  0  0  0
   -2.3784    3.7549    3.1561 H   0  0  0  0  0  0
   -8.1543   -4.1981   -0.2503 H   0  0  0  0  0  0
   -2.5770    5.3121    1.2504 H   0  0  0  0  0  0
    7.9956   -1.3098   -0.2688 H   0  0  0  0  0  0
    7.7403   -0.1103   -1.4874 H   0  0  0  0  0  0
    6.5410   -1.7160    1.4036 H   0  0  0  0  0  0
    4.9393   -1.0967    1.4722 H   0  0  0  0  0  0
    9.3225    0.7253    0.2510 H   0  0  0  0  0  0
    7.8663    1.7141    0.2629 H   0  0  0  0  0  0
    8.1109    0.4881    1.5068 H   0  0  0  0  0  0
    4.9433   -3.4782    0.7306 H   0  0  0  0  0  0
    4.3126   -2.4738   -0.5680 H   0  0  0  0  0  0
    5.9675   -3.0769   -0.6439 H   0  0  0  0  0  0
   -1.7057    6.8558   -1.8612 H   0  0  0  0  0  0
   -1.5072    6.5057   -0.1557 H   0  0  0  0  0  0
   -2.7625   -2.9558   -0.2387 N   0  3  1  0  0  0
   -2.8477   -3.3851    0.6716 H   0  0  0  0  0  0
  1 21  1  0  0  0
  1 27  1  0  0  0
  2 29  2  0  0  0
  3 32  2  0  0  0
  4 29  1  0  0  0
  4 30  1  0  0  0
  4 31  1  0  0  0
  5 32  1  0  0  0
  5 66  1  0  0  0
  5 67  1  0  0  0
  6  8  1  0  0  0
  6 35  1  0  0  0
  6 36  1  0  0  0
  6 68  1  0  0  0
  7  9  1  0  0  0
  7 37  1  0  0  0
  7 38  1  0  0  0
  7 68  1  0  0  0
  8 10  1  0  0  0
  8 39  1  0  0  0
  8 40  1  0  0  0
  9 10  1  0  0  0
  9 41  1  0  0  0
  9 42  1  0  0  0
 10 12  2  0  0  0
 11 15  1  0  0  0
 11 43  1  0  0  0
 11 44  1  0  0  0
 11 68  1  0  0  0
 12 13  1  0  0  0
 12 14  1  0  0  0
 13 16  2  0  0  0
 13 17  1  0  0  0
 14 18  2  0  0  0
 14 19  1  0  0  0
 15 20  1  0  0  0
 15 21  2  0  0  0
 16 23  1  0  0  0
 16 45  1  0  0  0
 17 24  2  0  0  0
 17 46  1  0  0  0
 18 25  1  0  0  0
 18 47  1  0  0  0
 19 26  2  0  0  0
 19 48  1  0  0  0
 20 27  2  0  0  0
 20 49  1  0  0  0
 21 50  1  0  0  0
 22 23  2  0  0  0
 22 24  1  0  0  0
 22 29  1  0  0  0
 23 51  1  0  0  0
 24 52  1  0  0  0
 25 28  2  0  0  0
 25 32  1  0  0  0
 26 28  1  0  0  0
 26 53  1  0  0  0
 27 54  1  0  0  0
 28 55  1  0  0  0
 30 33  1  0  0  0
 30 56  1  0  0  0
 30 57  1  0  0  0
 31 34  1  0  0  0
 31 58  1  0  0  0
 31 59  1  0  0  0
 33 60  1  0  0  0
 33 61  1  0  0  0
 33 62  1  0  0  0
 34 63  1  0  0  0
 34 64  1  0  0  0
 34 65  1  0  0  0
 68 69  1  0  0  0
M  CHG  1  68   1
M  END
> <LID>
L022236

> <PC_CID>
10205502

> <Names>


> <CAS_Numbers>


$$$$
22380561
                    3D
 Structure written by MMmdl.
 79 82  0  0  1  0            999 V2000
    3.6625    3.5656    0.8475 O   0  0  0  0  0  0
   -3.1984    2.8789    0.5713 O   0  0  0  0  0  0
    1.5213   -3.3808    1.6685 O   0  0  0  0  0  0
    0.7188   -3.9855   -0.3743 N   0  0  0  0  0  0
    2.2676    1.7715   -0.0365 C   0  0  0  0  0  0
    1.4793    1.8520    1.3088 C   0  0  0  0  0  0
    1.2243    2.0201   -1.1682 C   0  0  0  0  0  0
    0.5941    3.1078    1.4606 C   0  0  0  0  0  0
    0.3808    3.2913   -0.9690 C   0  0  0  0  0  0
    2.9437    0.3872   -0.1479 C   0  0  0  0  0  0
    3.3842    2.8451   -0.1102 C   0  0  0  0  0  0
   -1.3267    4.3366    0.4918 C   0  0  0  0  0  0
    2.7860   -0.4443   -1.2866 C   0  0  0  0  0  0
    3.7717   -0.0763    0.9047 C   0  0  0  0  0  0
    4.1648    2.9846   -1.4156 C   0  0  0  0  0  0
   -2.6693    3.9763   -0.1584 C   0  0  0  0  0  0
    3.4282   -1.6950   -1.3633 C   0  0  0  0  0  0
    4.4132   -1.3269    0.8288 C   0  0  0  0  0  0
    4.2433   -2.1372   -0.3068 C   0  0  0  0  0  0
   -4.2210    2.1406    0.0165 C   0  0  0  0  0  0
   -4.5258    0.8932    0.6139 C   0  0  0  0  0  0
   -4.9722    2.5676   -1.1073 C   0  0  0  0  0  0
   -3.7626    0.4083    1.8401 C   0  0  0  0  0  0
   -5.5505    0.0840    0.0798 C   0  0  0  0  0  0
   -5.9954    1.7559   -1.6327 C   0  0  0  0  0  0
   -2.6165   -0.5446    1.5314 C   0  0  0  0  0  0
   -6.2827    0.5123   -1.0423 C   0  0  0  0  0  0
   -2.4040   -1.6657    2.3605 C   0  0  0  0  0  0
   -1.7390   -0.3108    0.4499 C   0  0  0  0  0  0
   -0.4723   -2.3273    1.0144 C   0  0  0  0  0  0
   -1.3353   -2.5469    2.1082 C   0  0  0  0  0  0
   -0.6728   -1.1954    0.1959 C   0  0  0  0  0  0
    0.6766   -3.2664    0.7793 C   0  0  0  0  0  0
    1.7846   -4.9764   -0.5904 C   0  0  0  0  0  0
   -0.3090   -3.9716   -1.4291 C   0  0  0  0  0  0
    1.4732   -6.3107    0.1049 C   0  0  0  0  0  0
    0.1375   -3.1808   -2.6703 C   0  0  0  0  0  0
    2.1517    1.8034    2.1655 H   0  0  0  0  0  0
    0.8399    0.9728    1.3960 H   0  0  0  0  0  0
    0.5329    1.1792   -1.2189 H   0  0  0  0  0  0
    1.7049    2.0677   -2.1461 H   0  0  0  0  0  0
    1.1963    4.0131    1.5430 H   0  0  0  0  0  0
    0.0282    3.0262    2.3895 H   0  0  0  0  0  0
   -0.3301    3.3750   -1.7909 H   0  0  0  0  0  0
    1.0060    4.1847   -1.0077 H   0  0  0  0  0  0
   -1.5020    4.5300    1.5512 H   0  0  0  0  0  0
   -0.9283    5.2625    0.0743 H   0  0  0  0  0  0
    2.1789   -0.1475   -2.1271 H   0  0  0  0  0  0
    3.9343    0.5303    1.7829 H   0  0  0  0  0  0
    5.1678    3.3630   -1.2176 H   0  0  0  0  0  0
    4.2570    2.0244   -1.9226 H   0  0  0  0  0  0
    3.6600    3.6825   -2.0835 H   0  0  0  0  0  0
   -3.3569    4.8208   -0.0982 H   0  0  0  0  0  0
   -2.5279    3.7318   -1.2119 H   0  0  0  0  0  0
    3.2948   -2.3169   -2.2362 H   0  0  0  0  0  0
    5.0396   -1.6627    1.6420 H   0  0  0  0  0  0
    4.7366   -3.0961   -0.3665 H   0  0  0  0  0  0
   -4.7851    3.5186   -1.5823 H   0  0  0  0  0  0
   -3.3698    1.2519    2.4078 H   0  0  0  0  0  0
   -4.4717   -0.0852    2.5062 H   0  0  0  0  0  0
   -5.7789   -0.8699    0.5326 H   0  0  0  0  0  0
   -6.5615    2.0887   -2.4902 H   0  0  0  0  0  0
   -7.0673   -0.1105   -1.4464 H   0  0  0  0  0  0
   -3.0566   -1.8523    3.2010 H   0  0  0  0  0  0
   -1.8728    0.5487   -0.1891 H   0  0  0  0  0  0
   -1.1836   -3.3973    2.7576 H   0  0  0  0  0  0
   -0.0002   -0.9920   -0.6211 H   0  0  0  0  0  0
    1.9253   -5.1563   -1.6563 H   0  0  0  0  0  0
    2.7424   -4.5939   -0.2365 H   0  0  0  0  0  0
   -0.5208   -4.9997   -1.7258 H   0  0  0  0  0  0
   -1.2650   -3.5904   -1.0712 H   0  0  0  0  0  0
    2.2649   -7.0364   -0.0817 H   0  0  0  0  0  0
    1.3873   -6.1883    1.1849 H   0  0  0  0  0  0
    0.5392   -6.7396   -0.2589 H   0  0  0  0  0  0
   -0.6505   -3.1753   -3.4234 H   0  0  0  0  0  0
    0.3723   -2.1447   -2.4355 H   0  0  0  0  0  0
    1.0225   -3.6196   -3.1305 H   0  0  0  0  0  0
   -0.3447    3.2363    0.3227 N   0  3  0  0  0  0
   -0.8876    2.3839    0.3223 H   0  0  0  0  0  0
  1 11  2  0  0  0
  2 16  1  0  0  0
  2 20  1  0  0  0
  3 33  2  0  0  0
  4 33  1  0  0  0
  4 34  1  0  0  0
  4 35  1  0  0  0
  5  6  1  0  0  0
  5  7  1  0  0  0
  5 10  1  0  0  0
  5 11  1  0  0  0
  6  8  1  0  0  0
  6 38  1  0  0  0
  6 39  1  0  0  0
  7  9  1  0  0  0
  7 40  1  0  0  0
  7 41  1  0  0  0
  8 42  1  0  0  0
  8 43  1  0  0  0
  8 78  1  0  0  0
  9 44  1  0  0  0
  9 45  1  0  0  0
  9 78  1  0  0  0
 10 13  2  0  0  0
 10 14  1  0  0  0
 11 15  1  0  0  0
 12 16  1  0  0  0
 12 46  1  0  0  0
 12 47  1  0  0  0
 12 78  1  0  0  0
 13 17  1  0  0  0
 13 48  1  0  0  0
 14 18  2  0  0  0
 14 49  1  0  0  0
 15 50  1  0  0  0
 15 51  1  0  0  0
 15 52  1  0  0  0
 16 53  1  0  0  0
 16 54  1  0  0  0
 17 19  2  0  0  0
 17 55  1  0  0  0
 18 19  1  0  0  0
 18 56  1  0  0  0
 19 57  1  0  0  0
 20 21  1  0  0  0
 20 22  2  0  0  0
 21 23  1  0  0  0
 21 24  2  0  0  0
 22 25  1  0  0  0
 22 58  1  0  0  0
 23 26  1  0  0  0
 23 59  1  0  0  0
 23 60  1  0  0  0
 24 27  1  0  0  0
 24 61  1  0  0  0
 25 27  2  0  0  0
 25 62  1  0  0  0
 26 28  2  0  0  0
 26 29  1  0  0  0
 27 63  1  0  0  0
 28 31  1  0  0  0
 28 64  1  0  0  0
 29 32  2  0  0  0
 29 65  1  0  0  0
 30 31  2  0  0  0
 30 32  1  0  0  0
 30 33  1  0  0  0
 31 66  1  0  0  0
 32 67  1  0  0  0
 34 36  1  0  0  0
 34 68  1  0  0  0
 34 69  1  0  0  0
 35 37  1  0  0  0
 35 70  1  0  0  0
 35 71  1  0  0  0
 36 72  1  0  0  0
 36 73  1  0  0  0
 36 74  1  0  0  0
 37 75  1  0  0  0
 37 76  1  0  0  0
 37 77  1  0  0  0
 78 79  1  0  0  0
M  CHG  1  78   1
M  END
> <LID>
L020698

> <PC_CID>
22380561

> <Names>


> <CAS_Numbers>


$$$$
44213908
                    3D
 Structure written by MMmdl.
 53 56  0  0  1  0            999 V2000
   -3.9338    2.8747    2.0498 O   0  0  0  0  0  0
   -1.1262   -0.3291   -0.5857 C   0  0  2  0  0  0
   -0.7356   -0.9879    0.7876 C   0  0  1  0  0  0
   -1.6275   -1.4886   -1.4974 C   0  0  0  0  0  0
    0.1199    0.3606   -1.2113 C   0  0  0  0  0  0
   -1.8957   -1.8235    1.3867 C   0  0  0  0  0  0
    0.5628   -1.8297    0.7318 C   0  0  0  0  0  0
   -2.7942   -2.2641   -0.8626 C   0  0  0  0  0  0
    1.3914   -0.5026   -1.2431 C   0  0  0  0  0  0
   -2.2176    0.7671   -0.4651 C   0  0  0  0  0  0
    1.7104   -1.0343    0.1424 C   0  0  0  0  0  0
   -3.4392   -3.7074    1.0236 C   0  0  0  0  0  0
   -2.5961    1.3459    0.7746 C   0  0  0  0  0  0
   -2.8394    1.2664   -1.6377 C   0  0  0  0  0  0
    2.8724   -0.8633    0.8087 C   0  0  0  0  0  0
   -3.5831    2.3487    0.8408 C   0  0  0  0  0  0
   -3.8246    2.2699   -1.5747 C   0  0  0  0  0  0
    4.0329   -0.0423    0.4272 C   0  0  0  0  0  0
   -4.2031    2.8092   -0.3338 C   0  0  0  0  0  0
    5.3291   -0.5737    0.5970 C   0  0  0  0  0  0
    3.8904    1.2651   -0.0903 C   0  0  0  0  0  0
    6.4647    0.1812    0.2438 C   0  0  0  0  0  0
    5.0246    2.0219   -0.4437 C   0  0  0  0  0  0
    6.3129    1.4793   -0.2788 C   0  0  0  0  0  0
   -0.4881   -0.1961    1.4936 H   0  0  0  0  0  0
   -0.8253   -2.1984   -1.6933 H   0  0  0  0  0  0
   -1.9160   -1.1348   -2.4855 H   0  0  0  0  0  0
    0.3471    1.2620   -0.6395 H   0  0  0  0  0  0
   -0.1036    0.7011   -2.2229 H   0  0  0  0  0  0
   -1.5633   -2.3086    2.3056 H   0  0  0  0  0  0
   -2.7327   -1.1865    1.6709 H   0  0  0  0  0  0
    0.4273   -2.7307    0.1338 H   0  0  0  0  0  0
    0.8251   -2.1709    1.7343 H   0  0  0  0  0  0
   -3.6607   -1.6159   -0.7228 H   0  0  0  0  0  0
   -3.1051   -3.0625   -1.5376 H   0  0  0  0  0  0
    2.2183    0.0588   -1.6716 H   0  0  0  0  0  0
    1.2541   -1.3526   -1.9109 H   0  0  0  0  0  0
   -3.7246   -4.4992    0.3302 H   0  0  0  0  0  0
   -3.0845   -4.1811    1.9396 H   0  0  0  0  0  0
   -4.3299   -3.1246    1.2625 H   0  0  0  0  0  0
   -2.1478    1.0445    1.7066 H   0  0  0  0  0  0
   -2.5618    0.8965   -2.6123 H   0  0  0  0  0  0
    2.9563   -1.3152    1.7865 H   0  0  0  0  0  0
   -4.2861    2.6303   -2.4822 H   0  0  0  0  0  0
   -4.9590    3.5796   -0.2898 H   0  0  0  0  0  0
    5.4572   -1.5693    0.9963 H   0  0  0  0  0  0
    2.9095    1.7018   -0.2071 H   0  0  0  0  0  0
   -4.5952    3.5466    1.9863 H   0  0  0  0  0  0
    7.4523   -0.2362    0.3742 H   0  0  0  0  0  0
    4.9058    3.0205   -0.8377 H   0  0  0  0  0  0
    7.1831    2.0592   -0.5491 H   0  0  0  0  0  0
   -2.3860   -2.8515    0.4356 N   0  3  2  0  0  0
   -1.6014   -3.4572    0.2407 H   0  0  0  0  0  0
  1 16  1  0  0  0
  1 48  1  0  0  0
  2  3  1  0  0  0
  2  4  1  0  0  0
  2  5  1  0  0  0
  2 10  1  0  0  0
  3  6  1  0  0  0
  3  7  1  0  0  0
  3 25  1  0  0  0
  4  8  1  0  0  0
  4 26  1  0  0  0
  4 27  1  0  0  0
  5  9  1  0  0  0
  5 28  1  0  0  0
  5 29  1  0  0  0
  6 30  1  0  0  0
  6 31  1  0  0  0
  6 52  1  0  0  0
  7 11  1  0  0  0
  7 32  1  0  0  0
  7 33  1  0  0  0
  8 34  1  0  0  0
  8 35  1  0  0  0
  8 52  1  0  0  0
  9 11  1  0  0  0
  9 36  1  0  0  0
  9 37  1  0  0  0
 10 13  2  0  0  0
 10 14  1  0  0  0
 11 15  2  0  0  0
 12 38  1  0  0  0
 12 39  1  0  0  0
 12 40  1  0  0  0
 12 52  1  0  0  0
 13 16  1  0  0  0
 13 41  1  0  0  0
 14 17  2  0  0  0
 14 42  1  0  0  0
 15 18  1  0  0  0
 15 43  1  0  0  0
 16 19  2  0  0  0
 17 19  1  0  0  0
 17 44  1  0  0  0
 18 20  2  0  0  0
 18 21  1  0  0  0
 19 45  1  0  0  0
 20 22  1  0  0  0
 20 46  1  0  0  0
 21 23  2  0  0  0
 21 47  1  0  0  0
 22 24  2  0  0  0
 22 49  1  0  0  0
 23 24  1  0  0  0
 23 50  1  0  0  0
 24 51  1  0  0  0
 52 53  1  0  0  0
M  CHG  1  52   1
M  END
> <LID>
L016308

> <PC_CID>
44213908

> <Names>


> <CAS_Numbers>


$$$$
443406
                    3D
 Structure written by MMmdl.
 53 56  0  0  1  0            999 V2000
    3.9898   -0.5347   -2.1003 O   0  0  0  0  0  0
   -5.2572   -0.9599   -0.6675 O   0  0  0  0  0  0
    0.2271    1.3356    1.1578 C   0  0  0  0  0  0
   -0.8591    1.3010    0.0061 C   0  0  1  0  0  0
    0.9670   -0.0315    1.1388 C   0  0  1  0  0  0
   -0.1140    1.0715   -1.3420 C   0  0  0  0  0  0
    0.7751   -0.1861   -1.3448 C   0  0  0  0  0  0
    3.9957   -0.8785   -0.7309 C   0  0  0  0  0  0
    0.0206   -1.2066    1.4678 C   0  0  0  0  0  0
   -1.8111    0.0893    0.2048 C   0  0  0  0  0  0
    2.6537   -1.3309   -0.1856 C   0  0  0  0  0  0
   -1.6629    2.6533   -0.0166 C   0  0  0  0  0  0
   -0.4241    1.5692    2.5489 C   0  0  0  0  0  0
    1.3045    2.4537    1.0124 C   0  0  0  0  0  0
    5.2922   -1.5465   -0.3406 C   0  0  0  0  0  0
    5.0169   -0.1158    0.0765 C   0  0  0  0  0  0
   -1.3706   -1.0916    0.8672 C   0  0  0  0  0  0
   -3.1328    0.1042   -0.3094 C   0  0  0  0  0  0
   -2.1021    3.2115   -1.3870 C   0  0  0  0  0  0
   -2.2330   -2.1987    1.0081 C   0  0  0  0  0  0
   -3.9892   -1.0038   -0.1657 C   0  0  0  0  0  0
   -3.5390   -2.1585    0.4937 C   0  0  0  0  0  0
    1.7426   -0.0146    1.9067 H   0  0  0  0  0  0
    0.4937    1.9385   -1.5984 H   0  0  0  0  0  0
   -0.8303    0.9716   -2.1580 H   0  0  0  0  0  0
    0.1673   -1.0908   -1.3726 H   0  0  0  0  0  0
    1.3662   -0.1983   -2.2603 H   0  0  0  0  0  0
   -0.1078   -1.2624    2.5494 H   0  0  0  0  0  0
    0.4591   -2.1622    1.1796 H   0  0  0  0  0  0
    2.2799   -2.1721   -0.7714 H   0  0  0  0  0  0
    2.8187   -1.7111    0.8235 H   0  0  0  0  0  0
   -2.5242    2.5835    0.6491 H   0  0  0  0  0  0
   -1.0757    3.4575    0.4157 H   0  0  0  0  0  0
   -0.8366    2.5743    2.6374 H   0  0  0  0  0  0
   -1.2392    0.8799    2.7653 H   0  0  0  0  0  0
    0.3085    1.4588    3.3492 H   0  0  0  0  0  0
    0.9030    3.4573    1.1406 H   0  0  0  0  0  0
    2.0714    2.3466    1.7806 H   0  0  0  0  0  0
    1.8283    2.4400    0.0584 H   0  0  0  0  0  0
    6.0439   -1.7089   -1.1112 H   0  0  0  0  0  0
    5.2571   -2.3066    0.4375 H   0  0  0  0  0  0
    4.7965    0.0647    1.1269 H   0  0  0  0  0  0
    5.5792    0.6723   -0.4211 H   0  0  0  0  0  0
   -3.5218    0.9659   -0.8227 H   0  0  0  0  0  0
   -2.7391    4.0858   -1.2518 H   0  0  0  0  0  0
   -1.2435    3.5357   -1.9753 H   0  0  0  0  0  0
   -2.6585    2.4968   -1.9898 H   0  0  0  0  0  0
   -1.8928   -3.0882    1.5181 H   0  0  0  0  0  0
    4.8802   -0.3778   -2.3776 H   0  0  0  0  0  0
   -4.1923   -3.0113    0.6069 H   0  0  0  0  0  0
   -5.4650   -0.1397   -1.0880 H   0  0  0  0  0  0
    1.6760   -0.2127   -0.1652 N   0  3  2  0  0  0
    2.2466    0.6160   -0.2541 H   0  0  0  0  0  0
  1  8  1  0  0  0
  1 49  1  0  0  0
  2 21  1  0  0  0
  2 51  1  0  0  0
  3  4  1  0  0  0
  3  5  1  0  0  0
  3 13  1  0  0  0
  3 14  1  0  0  0
  4  6  1  0  0  0
  4 10  1  0  0  0
  4 12  1  0  0  0
  5  9  1  0  0  0
  5 23  1  0  0  0
  5 52  1  0  0  0
  6  7  1  0  0  0
  6 24  1  0  0  0
  6 25  1  0  0  0
  7 26  1  0  0  0
  7 27  1  0  0  0
  7 52  1  0  0  0
  8 11  1  0  0  0
  8 15  1  0  0  0
  8 16  1  0  0  0
  9 17  1  0  0  0
  9 28  1  0  0  0
  9 29  1  0  0  0
 10 17  2  0  0  0
 10 18  1  0  0  0
 11 30  1  0  0  0
 11 31  1  0  0  0
 11 52  1  0  0  0
 12 19  1  0  0  0
 12 32  1  0  0  0
 12 33  1  0  0  0
 13 34  1  0  0  0
 13 35  1  0  0  0
 13 36  1  0  0  0
 14 37  1  0  0  0
 14 38  1  0  0  0
 14 39  1  0  0  0
 15 16  1  0  0  0
 15 40  1  0  0  0
 15 41  1  0  0  0
 16 42  1  0  0  0
 16 43  1  0  0  0
 17 20  1  0  0  0
 18 21  2  0  0  0
 18 44  1  0  0  0
 19 45  1  0  0  0
 19 46  1  0  0  0
 19 47  1  0  0  0
 20 22  2  0  0  0
 20 48  1  0  0  0
 21 22  1  0  0  0
 22 50  1  0  0  0
 52 53  1  0  0  0
M  CHG  1  52   1
M  END
> <LID>
L024018

> <PC_CID>
443406

> <Names>
bremazocine

> <CAS_Numbers>
75684-07-0

$$$$
9821858
                    3D
 Structure written by MMmdl.
 53 55  0  0  1  0            999 V2000
   -5.8207    0.6054   -1.2551 F   0  0  0  0  0  0
   -6.5189   -1.0790    0.8441 O   0  0  0  0  0  0
    3.1060   -3.4560    1.3936 O   0  0  0  0  0  0
   -1.1773    0.9102    0.3993 C   0  0  2  0  0  0
   -1.1350    2.4397    0.5852 C   0  0  0  0  0  0
   -0.5246    0.4641   -0.9253 C   0  0  0  0  0  0
    0.2806    3.0210    0.7312 C   0  0  0  0  0  0
    1.1624    2.8465   -0.5185 C   0  0  0  0  0  0
    0.9908    0.3541   -0.8336 C   0  0  0  0  0  0
    1.7645    1.4499   -0.6346 C   0  0  0  0  0  0
   -2.6019    0.3818    0.5155 C   0  0  0  0  0  0
    3.2930    1.3934   -0.5631 C   0  0  0  0  0  0
    1.5718   -0.9969   -0.8798 C   0  0  0  0  0  0
   -3.5788    0.7410   -0.4393 C   0  0  0  0  0  0
   -2.9579   -0.4737    1.5806 C   0  0  0  0  0  0
    2.0630   -1.5946    0.2995 C   0  0  0  0  0  0
    1.6028   -1.7064   -2.0977 C   0  0  0  0  0  0
   -4.8950    0.2518   -0.3312 C   0  0  0  0  0  0
   -4.2739   -0.9637    1.6899 C   0  0  0  0  0  0
    5.0012    0.4884    0.9649 C   0  0  0  0  0  0
    3.9826    2.6539    1.4663 C   0  0  0  0  0  0
   -5.2443   -0.6020    0.7348 C   0  0  0  0  0  0
    2.6152   -2.8892    0.2541 C   0  0  0  0  0  0
    2.1507   -3.0033   -2.1397 C   0  0  0  0  0  0
    2.6603   -3.5932   -0.9660 C   0  0  0  0  0  0
   -0.6139    0.4589    1.2179 H   0  0  0  0  0  0
   -1.6522    2.9350   -0.2375 H   0  0  0  0  0  0
   -1.6944    2.6967    1.4858 H   0  0  0  0  0  0
   -0.8085    1.1271   -1.7434 H   0  0  0  0  0  0
   -0.9043   -0.5193   -1.2075 H   0  0  0  0  0  0
    0.7708    2.5933    1.6064 H   0  0  0  0  0  0
    0.1841    4.0878    0.9359 H   0  0  0  0  0  0
    1.9623    3.5864   -0.4984 H   0  0  0  0  0  0
    0.5927    3.0732   -1.4204 H   0  0  0  0  0  0
    3.6403    0.5205   -1.1166 H   0  0  0  0  0  0
    3.7330    2.2414   -1.0899 H   0  0  0  0  0  0
   -3.3225    1.3940   -1.2605 H   0  0  0  0  0  0
   -2.2243   -0.7596    2.3203 H   0  0  0  0  0  0
    2.0198   -1.0619    1.2383 H   0  0  0  0  0  0
    1.2129   -1.2577   -3.0001 H   0  0  0  0  0  0
   -4.5338   -1.6175    2.5095 H   0  0  0  0  0  0
    5.3047    0.4022    2.0088 H   0  0  0  0  0  0
    4.8197   -0.5212    0.5945 H   0  0  0  0  0  0
    5.8319    0.9154    0.4013 H   0  0  0  0  0  0
    3.0590    3.2276    1.4948 H   0  0  0  0  0  0
    4.3211    2.5433    2.4970 H   0  0  0  0  0  0
    4.7302    3.2366    0.9264 H   0  0  0  0  0  0
    2.1805   -3.5462   -3.0730 H   0  0  0  0  0  0
    3.0811   -4.5874   -1.0067 H   0  0  0  0  0  0
   -6.6446   -1.6409    1.5930 H   0  0  0  0  0  0
    3.4343   -4.3326    1.2627 H   0  0  0  0  0  0
    3.7874    1.3269    0.8377 N   0  3  0  0  0  0
    3.0707    0.8531    1.3689 H   0  0  0  0  0  0
  1 18  1  0  0  0
  2 22  1  0  0  0
  2 50  1  0  0  0
  3 23  1  0  0  0
  3 51  1  0  0  0
  4  5  1  0  0  0
  4  6  1  0  0  0
  4 11  1  0  0  0
  4 26  1  0  0  0
  5  7  1  0  0  0
  5 27  1  0  0  0
  5 28  1  0  0  0
  6  9  1  0  0  0
  6 29  1  0  0  0
  6 30  1  0  0  0
  7  8  1  0  0  0
  7 31  1  0  0  0
  7 32  1  0  0  0
  8 10  1  0  0  0
  8 33  1  0  0  0
  8 34  1  0  0  0
  9 10  2  0  0  0
  9 13  1  0  0  0
 10 12  1  0  0  0
 11 14  2  0  0  0
 11 15  1  0  0  0
 12 35  1  0  0  0
 12 36  1  0  0  0
 12 52  1  0  0  0
 13 16  2  0  0  0
 13 17  1  0  0  0
 14 18  1  0  0  0
 14 37  1  0  0  0
 15 19  2  0  0  0
 15 38  1  0  0  0
 16 23  1  0  0  0
 16 39  1  0  0  0
 17 24  2  0  0  0
 17 40  1  0  0  0
 18 22  2  0  0  0
 19 22  1  0  0  0
 19 41  1  0  0  0
 20 42  1  0  0  0
 20 43  1  0  0  0
 20 44  1  0  0  0
 20 52  1  0  0  0
 21 45  1  0  0  0
 21 46  1  0  0  0
 21 47  1  0  0  0
 21 52  1  0  0  0
 23 25  2  0  0  0
 24 25  1  0  0  0
 24 48  1  0  0  0
 25 49  1  0  0  0
 52 53  1  0  0  0
M  CHG  1  52   1
M  END
> <LID>
L019785

> <PC_CID>
9821858

> <Names>


> <CAS_Numbers>


$$$$
9868276
                    3D
 Structure written by MMmdl.
 65 68  0  0  1  0            999 V2000
    2.1271   -1.0273    4.4112 O   0  0  0  0  0  0
   -2.8998   -0.4529   -0.7182 C   0  0  2  0  0  0
   -2.9566   -1.3081   -1.9987 C   0  0  0  0  0  0
   -2.2001   -1.1866    0.4449 C   0  0  0  0  0  0
   -1.5815   -1.6205   -2.6102 C   0  0  0  0  0  0
   -0.6752   -2.4725   -1.7041 C   0  0  0  0  0  0
    0.0211   -1.6644   -0.6128 C   0  0  0  0  0  0
   -0.6825   -1.0741    0.3883 C   0  0  0  0  0  0
    1.5525   -1.6180   -0.7281 C   0  0  0  0  0  0
   -4.2886    0.0248   -0.3121 C   0  0  0  0  0  0
   -0.0308   -0.3554    1.4990 C   0  0  0  0  0  0
    1.5620    0.6710   -1.7629 C   0  0  0  0  0  0
   -5.2756   -0.9023    0.0901 C   0  0  0  0  0  0
   -4.6001    1.4020   -0.3328 C   0  0  0  0  0  0
    0.7493   -1.0519    2.4470 C   0  0  0  0  0  0
   -0.2367    1.0328    1.6425 C   0  0  0  0  0  0
    2.1243   -1.3073   -3.1479 C   0  0  0  0  0  0
    2.6920    1.6990   -1.9295 C   0  0  0  0  0  0
   -6.5580   -0.4577    0.4661 C   0  0  0  0  0  0
   -5.8827    1.8462    0.0433 C   0  0  0  0  0  0
   -6.8620    0.9168    0.4427 C   0  0  0  0  0  0
    1.3569   -0.3537    3.5089 C   0  0  0  0  0  0
    0.3665    1.7279    2.7083 C   0  0  0  0  0  0
    3.7204    1.5986   -0.8162 C   0  0  0  0  0  0
    1.1679    1.0368    3.6378 C   0  0  0  0  0  0
    4.9938    1.0455   -1.0685 C   0  0  0  0  0  0
    3.3951    2.0367    0.4851 C   0  0  0  0  0  0
    5.9322    0.9275   -0.0246 C   0  0  0  0  0  0
    4.3324    1.9154    1.5288 C   0  0  0  0  0  0
    5.6012    1.3604    1.2741 C   0  0  0  0  0  0
   -2.3205    0.4440   -0.9441 H   0  0  0  0  0  0
   -3.5419   -0.7749   -2.7491 H   0  0  0  0  0  0
   -3.4935   -2.2381   -1.8079 H   0  0  0  0  0  0
   -2.5088   -2.2309    0.5048 H   0  0  0  0  0  0
   -2.5193   -0.7427    1.3895 H   0  0  0  0  0  0
   -1.0788   -0.6957   -2.8927 H   0  0  0  0  0  0
   -1.7457   -2.1654   -3.5404 H   0  0  0  0  0  0
    0.0721   -2.9807   -2.3124 H   0  0  0  0  0  0
   -1.2502   -3.2780   -1.2460 H   0  0  0  0  0  0
    2.0095   -1.2775    0.1976 H   0  0  0  0  0  0
    1.9336   -2.6305   -0.8665 H   0  0  0  0  0  0
    0.8023    0.8060   -2.5337 H   0  0  0  0  0  0
    1.0674    0.8742   -0.8154 H   0  0  0  0  0  0
   -5.0523   -1.9589    0.1125 H   0  0  0  0  0  0
   -3.8581    2.1257   -0.6370 H   0  0  0  0  0  0
    0.8900   -2.1193    2.3555 H   0  0  0  0  0  0
   -0.8516    1.5683    0.9336 H   0  0  0  0  0  0
    1.1327   -1.3694   -3.5935 H   0  0  0  0  0  0
    2.7423   -0.6957   -3.8057 H   0  0  0  0  0  0
    2.5580   -2.3076   -3.1287 H   0  0  0  0  0  0
    3.1790    1.5770   -2.8977 H   0  0  0  0  0  0
    2.2743    2.7065   -1.9251 H   0  0  0  0  0  0
   -7.3083   -1.1714    0.7727 H   0  0  0  0  0  0
   -6.1154    2.9007    0.0254 H   0  0  0  0  0  0
   -7.8454    1.2579    0.7311 H   0  0  0  0  0  0
    0.2154    2.7923    2.8126 H   0  0  0  0  0  0
    1.6305    1.5769    4.4509 H   0  0  0  0  0  0
    5.2555    0.7061   -2.0602 H   0  0  0  0  0  0
    2.4228    2.4609    0.6885 H   0  0  0  0  0  0
    2.4776   -0.4727    5.0912 H   0  0  0  0  0  0
    6.9061    0.5029   -0.2195 H   0  0  0  0  0  0
    4.0773    2.2472    2.5246 H   0  0  0  0  0  0
    6.3207    1.2677    2.0744 H   0  0  0  0  0  0
    2.0863   -0.7189   -1.7893 N   0  3  2  0  0  0
    3.0592   -0.6205   -1.5335 H   0  0  0  0  0  0
  1 22  1  0  0  0
  1 60  1  0  0  0
  2  3  1  0  0  0
  2  4  1  0  0  0
  2 10  1  0  0  0
  2 31  1  0  0  0
  3  5  1  0  0  0
  3 32  1  0  0  0
  3 33  1  0  0  0
  4  8  1  0  0  0
  4 34  1  0  0  0
  4 35  1  0  0  0
  5  6  1  0  0  0
  5 36  1  0  0  0
  5 37  1  0  0  0
  6  7  1  0  0  0
  6 38  1  0  0  0
  6 39  1  0  0  0
  7  8  2  0  0  0
  7  9  1  0  0  0
  8 11  1  0  0  0
  9 40  1  0  0  0
  9 41  1  0  0  0
  9 64  1  0  0  0
 10 13  2  0  0  0
 10 14  1  0  0  0
 11 15  2  0  0  0
 11 16  1  0  0  0
 12 18  1  0  0  0
 12 42  1  0  0  0
 12 43  1  0  0  0
 12 64  1  0  0  0
 13 19  1  0  0  0
 13 44  1  0  0  0
 14 20  2  0  0  0
 14 45  1  0  0  0
 15 22  1  0  0  0
 15 46  1  0  0  0
 16 23  2  0  0  0
 16 47  1  0  0  0
 17 48  1  0  0  0
 17 49  1  0  0  0
 17 50  1  0  0  0
 17 64  1  0  0  0
 18 24  1  0  0  0
 18 51  1  0  0  0
 18 52  1  0  0  0
 19 21  2  0  0  0
 19 53  1  0  0  0
 20 21  1  0  0  0
 20 54  1  0  0  0
 21 55  1  0  0  0
 22 25  2  0  0  0
 23 25  1  0  0  0
 23 56  1  0  0  0
 24 26  2  0  0  0
 24 27  1  0  0  0
 25 57  1  0  0  0
 26 28  1  0  0  0
 26 58  1  0  0  0
 27 29  2  0  0  0
 27 59  1  0  0  0
 28 30  2  0  0  0
 28 61  1  0  0  0
 29 30  1  0  0  0
 29 62  1  0  0  0
 30 63  1  0  0  0
 64 65  1  0  0  0
M  CHG  1  64   1
M  END
> <LID>
L019793

> <PC_CID>
9868276

> <Names>


> <CAS_Numbers>


$$$$
18452970
                    3D
 Structure written by MMmdl.
 69 72  0  0  1  0            999 V2000
   -6.4825   -2.7178    0.8318 S   0  0  0  0  0  0
    5.5382   -1.2523   -0.9562 O   0  0  0  0  0  0
    1.4194    5.2965   -2.2880 O   0  0  0  0  0  0
    4.5756   -3.2017   -0.2759 N   0  0  0  0  0  0
    0.3907    7.0154   -1.2698 N   0  0  0  0  0  0
   -2.7218    1.3724    1.0918 C   0  0  0  0  0  0
   -1.6725   -0.8770    0.6406 C   0  0  0  0  0  0
   -3.8442    1.0114    0.1047 C   0  0  0  0  0  0
   -2.8186   -1.1840   -0.3369 C   0  0  0  0  0  0
   -1.4339    0.6246    0.7634 C   0  0  0  0  0  0
   -5.2237   -0.8067   -0.8220 C   0  0  0  0  0  0
   -0.2289    1.2211    0.5788 C   0  0  0  0  0  0
    0.9775    0.4276    0.3007 C   0  0  0  0  0  0
   -0.0368    2.6671    0.7783 C   0  0  0  0  0  0
   -5.6697   -2.2203   -0.6311 C   0  0  0  0  0  0
    1.4725    0.3140   -1.0152 C   0  0  0  0  0  0
    1.6735   -0.1956    1.3577 C   0  0  0  0  0  0
    0.2748    3.5024   -0.3155 C   0  0  0  0  0  0
   -0.1243    3.2263    2.0709 C   0  0  0  0  0  0
   -5.5191   -3.2743   -1.4965 C   0  0  0  0  0  0
    3.3117   -1.0888   -0.2232 C   0  0  0  0  0  0
    2.6353   -0.4362   -1.2754 C   0  0  0  0  0  0
    2.8363   -0.9461    1.0989 C   0  0  0  0  0  0
    0.4757    4.8891   -0.1351 C   0  0  0  0  0  0
    0.0860    4.6041    2.2643 C   0  0  0  0  0  0
   -6.0556   -4.4948   -0.9915 C   0  0  0  0  0  0
   -6.6092   -4.3561    0.2535 C   0  0  0  0  0  0
    0.3878    5.4331    1.1673 C   0  0  0  0  0  0
    4.5654   -1.8633   -0.5120 C   0  0  0  0  0  0
    5.8031   -3.9863   -0.4744 C   0  0  0  0  0  0
    3.3968   -4.0044    0.0907 C   0  0  0  0  0  0
    0.8225    5.7523   -1.3149 C   0  0  0  0  0  0
    6.6747   -3.9880    0.7892 C   0  0  0  0  0  0
    2.5261   -4.3269   -1.1327 C   0  0  0  0  0  0
   -2.5870    2.4530    1.0894 H   0  0  0  0  0  0
   -3.0217    1.1032    2.1053 H   0  0  0  0  0  0
   -1.9236   -1.2606    1.6302 H   0  0  0  0  0  0
   -0.7814   -1.4177    0.3243 H   0  0  0  0  0  0
   -4.7656    1.5054    0.4157 H   0  0  0  0  0  0
   -3.6015    1.3918   -0.8891 H   0  0  0  0  0  0
   -2.5246   -0.9106   -1.3517 H   0  0  0  0  0  0
   -2.9973   -2.2594   -0.3402 H   0  0  0  0  0  0
   -6.0598   -0.1477   -0.5842 H   0  0  0  0  0  0
   -4.9784   -0.6235   -1.8694 H   0  0  0  0  0  0
    0.9590    0.8000   -1.8318 H   0  0  0  0  0  0
    1.3159   -0.0974    2.3724 H   0  0  0  0  0  0
    0.3523    3.0735   -1.3042 H   0  0  0  0  0  0
   -0.3486    2.5962    2.9193 H   0  0  0  0  0  0
   -5.0454   -3.2139   -2.4655 H   0  0  0  0  0  0
    3.0027   -0.5140   -2.2886 H   0  0  0  0  0  0
    3.3620   -1.4116    1.9202 H   0  0  0  0  0  0
    0.0224    5.0249    3.2569 H   0  0  0  0  0  0
   -6.0174   -5.4182   -1.5508 H   0  0  0  0  0  0
   -7.0824   -5.1123    0.8630 H   0  0  0  0  0  0
    0.5590    6.4855    1.3408 H   0  0  0  0  0  0
    5.5558   -5.0135   -0.7465 H   0  0  0  0  0  0
    6.3784   -3.6051   -1.3198 H   0  0  0  0  0  0
    3.7165   -4.9394    0.5530 H   0  0  0  0  0  0
    2.7968   -3.5200    0.8580 H   0  0  0  0  0  0
    7.5740   -4.5854    0.6380 H   0  0  0  0  0  0
    6.9894   -2.9784    1.0554 H   0  0  0  0  0  0
    6.1365   -4.4073    1.6397 H   0  0  0  0  0  0
    1.6813   -4.9551   -0.8500 H   0  0  0  0  0  0
    2.1245   -3.4224   -1.5896 H   0  0  0  0  0  0
    3.0967   -4.8613   -1.8928 H   0  0  0  0  0  0
    0.5777    7.6323   -2.0466 H   0  0  0  0  0  0
   -0.1239    7.3450   -0.4667 H   0  0  0  0  0  0
   -4.0615   -0.4555    0.0315 N   0  3  2  0  0  0
   -4.3024   -0.7517    0.9667 H   0  0  0  0  0  0
  1 15  1  0  0  0
  1 27  1  0  0  0
  2 29  2  0  0  0
  3 32  2  0  0  0
  4 29  1  0  0  0
  4 30  1  0  0  0
  4 31  1  0  0  0
  5 32  1  0  0  0
  5 66  1  0  0  0
  5 67  1  0  0  0
  6  8  1  0  0  0
  6 10  1  0  0  0
  6 35  1  0  0  0
  6 36  1  0  0  0
  7  9  1  0  0  0
  7 10  1  0  0  0
  7 37  1  0  0  0
  7 38  1  0  0  0
  8 39  1  0  0  0
  8 40  1  0  0  0
  8 68  1  0  0  0
  9 41  1  0  0  0
  9 42  1  0  0  0
  9 68  1  0  0  0
 10 12  2  0  0  0
 11 15  1  0  0  0
 11 43  1  0  0  0
 11 44  1  0  0  0
 11 68  1  0  0  0
 12 13  1  0  0  0
 12 14  1  0  0  0
 13 16  2  0  0  0
 13 17  1  0  0  0
 14 18  2  0  0  0
 14 19  1  0  0  0
 15 20  2  0  0  0
 16 22  1  0  0  0
 16 45  1  0  0  0
 17 23  2  0  0  0
 17 46  1  0  0  0
 18 24  1  0  0  0
 18 47  1  0  0  0
 19 25  2  0  0  0
 19 48  1  0  0  0
 20 26  1  0  0  0
 20 49  1  0  0  0
 21 22  2  0  0  0
 21 23  1  0  0  0
 21 29  1  0  0  0
 22 50  1  0  0  0
 23 51  1  0  0  0
 24 28  2  0  0  0
 24 32  1  0  0  0
 25 28  1  0  0  0
 25 52  1  0  0  0
 26 27  2  0  0  0
 26 53  1  0  0  0
 27 54  1  0  0  0
 28 55  1  0  0  0
 30 33  1  0  0  0
 30 56  1  0  0  0
 30 57  1  0  0  0
 31 34  1  0  0  0
 31 58  1  0  0  0
 31 59  1  0  0  0
 33 60  1  0  0  0
 33 61  1  0  0  0
 33 62  1  0  0  0
 34 63  1  0  0  0
 34 64  1  0  0  0
 34 65  1  0  0  0
 68 69  1  0  0  0
M  CHG  1  68   1
M  END
> <LID>
L022234

> <PC_CID>
18452970

> <Names>


> <CAS_Numbers>


$$$$
9797859
                    3D
 Structure written by MMmdl.
 50 51  0  0  1  0            999 V2000
    3.9056   -0.8771   -1.8749 F   0  0  0  0  0  0
    4.2271    0.0363    1.2417 O   0  0  0  0  0  0
   -6.3206    0.1097   -0.2736 O   0  0  0  0  0  0
   -6.2886   -1.8800    0.8660 O   0  0  0  0  0  0
    2.3212    0.4141    0.0740 N   0  0  0  0  0  0
    0.8623    0.3433   -0.1817 C   0  0  0  0  0  0
    0.3970   -0.9989   -0.7784 C   0  0  0  0  0  0
   -0.0608    0.7844    0.9726 C   0  0  0  0  0  0
   -1.0817   -0.9118   -1.1972 C   0  0  0  0  0  0
   -1.5206    0.8329    0.4897 C   0  0  0  0  0  0
   -3.3881   -0.5256   -0.4183 C   0  0  0  0  0  0
    3.0589    1.1487   -0.8986 C   0  0  0  0  0  0
   -4.2958   -0.5283    0.8256 C   0  0  0  0  0  0
    3.0126   -0.1394    1.1131 C   0  0  0  0  0  0
    2.3101   -0.9864    2.1898 C   0  0  0  0  0  0
    3.8446    0.4765   -1.8631 C   0  0  0  0  0  0
    2.9860    2.5589   -0.9127 C   0  0  0  0  0  0
   -5.7478   -0.8457    0.4754 C   0  0  0  0  0  0
    3.2516   -1.9759    2.8966 C   0  0  0  0  0  0
    4.5613    1.2149   -2.8247 C   0  0  0  0  0  0
    3.7042    3.2932   -1.8762 C   0  0  0  0  0  0
    4.4926    2.6217   -2.8307 C   0  0  0  0  0  0
   -7.6704   -0.0382   -0.6797 C   0  0  0  0  0  0
    0.6684    1.0742   -0.9700 H   0  0  0  0  0  0
    1.0051   -1.2476   -1.6491 H   0  0  0  0  0  0
    0.5199   -1.8234   -0.0802 H   0  0  0  0  0  0
   -0.0178    0.1053    1.8197 H   0  0  0  0  0  0
    0.2407    1.7659    1.3405 H   0  0  0  0  0  0
   -1.1970   -0.2126   -2.0271 H   0  0  0  0  0  0
   -1.4048   -1.8879   -1.5614 H   0  0  0  0  0  0
   -2.1560    1.1146    1.3289 H   0  0  0  0  0  0
   -1.6424    1.6074   -0.2694 H   0  0  0  0  0  0
   -3.6321    0.3101   -1.0766 H   0  0  0  0  0  0
   -3.5820   -1.4357   -0.9891 H   0  0  0  0  0  0
   -3.9470   -1.2752    1.5395 H   0  0  0  0  0  0
   -4.2654    0.4356    1.3331 H   0  0  0  0  0  0
    1.8874   -0.3131    2.9353 H   0  0  0  0  0  0
    1.4925   -1.5618    1.7697 H   0  0  0  0  0  0
    2.3835    3.0793   -0.1824 H   0  0  0  0  0  0
    2.7017   -2.5834    3.6156 H   0  0  0  0  0  0
    3.7225   -2.6544    2.1842 H   0  0  0  0  0  0
    4.0412   -1.4592    3.4436 H   0  0  0  0  0  0
    5.1624    0.7009   -3.5600 H   0  0  0  0  0  0
    3.6507    4.3720   -1.8830 H   0  0  0  0  0  0
    5.0432    3.1857   -3.5693 H   0  0  0  0  0  0
   -7.9742    0.8214   -1.2769 H   0  0  0  0  0  0
   -7.7982   -0.9361   -1.2857 H   0  0  0  0  0  0
   -8.3320   -0.1030    0.1850 H   0  0  0  0  0  0
   -1.9468   -0.4824   -0.0648 N   0  3  0  0  0  0
   -1.8125   -1.1669    0.6660 H   0  0  0  0  0  0
  1 16  1  0  0  0
  2 14  2  0  0  0
  3 18  1  0  0  0
  3 23  1  0  0  0
  4 18  2  0  0  0
  5  6  1  0  0  0
  5 12  1  0  0  0
  5 14  1  0  0  0
  6  7  1  0  0  0
  6  8  1  0  0  0
  6 24  1  0  0  0
  7  9  1  0  0  0
  7 25  1  0  0  0
  7 26  1  0  0  0
  8 10  1  0  0  0
  8 27  1  0  0  0
  8 28  1  0  0  0
  9 29  1  0  0  0
  9 30  1  0  0  0
  9 49  1  0  0  0
 10 31  1  0  0  0
 10 32  1  0  0  0
 10 49  1  0  0  0
 11 13  1  0  0  0
 11 33  1  0  0  0
 11 34  1  0  0  0
 11 49  1  0  0  0
 12 16  1  0  0  0
 12 17  2  0  0  0
 13 18  1  0  0  0
 13 35  1  0  0  0
 13 36  1  0  0  0
 14 15  1  0  0  0
 15 19  1  0  0  0
 15 37  1  0  0  0
 15 38  1  0  0  0
 16 20  2  0  0  0
 17 21  1  0  0  0
 17 39  1  0  0  0
 19 40  1  0  0  0
 19 41  1  0  0  0
 19 42  1  0  0  0
 20 22  1  0  0  0
 20 43  1  0  0  0
 21 22  2  0  0  0
 21 44  1  0  0  0
 22 45  1  0  0  0
 23 46  1  0  0  0
 23 47  1  0  0  0
 23 48  1  0  0  0
 49 50  1  0  0  0
M  CHG  1  49   1
M  END
> <LID>
L004291

> <PC_CID>
9797859

> <Names>


> <CAS_Numbers>


$$$$
18452973
                    3D
 Structure written by MMmdl.
 72 75  0  0  1  0            999 V2000
    6.1122   -0.4754   -0.3710 O   0  0  0  0  0  0
   -1.4500    5.1317   -2.6461 O   0  0  0  0  0  0
    5.2464   -2.5707   -0.1481 N   0  0  0  0  0  0
   -1.8005    6.8552   -1.2475 N   0  0  0  0  0  0
   -3.5575    0.7553    0.1285 C   0  0  0  0  0  0
   -2.3192   -1.3555   -0.1800 C   0  0  0  0  0  0
   -2.5117    1.2459    1.1417 C   0  0  0  0  0  0
   -1.2398   -0.8976    0.8165 C   0  0  0  0  0  0
   -1.1477    0.6237    0.8648 C   0  0  0  0  0  0
   -4.7246   -1.2102   -0.7854 C   0  0  0  0  0  0
   -0.0039    1.3304    0.6719 C   0  0  0  0  0  0
    1.2933    0.6659    0.4603 C   0  0  0  0  0  0
   -5.0725   -2.6666   -0.5315 C   0  0  0  0  0  0
    0.0084    2.8030    0.6525 C   0  0  0  0  0  0
    1.9678    0.8069   -0.7706 C   0  0  0  0  0  0
    1.8985   -0.0775    1.4966 C   0  0  0  0  0  0
   -0.6375    3.5113   -0.3843 C   0  0  0  0  0  0
    0.7094    3.5188    1.6448 C   0  0  0  0  0  0
   -4.6239   -3.6719   -1.4148 C   0  0  0  0  0  0
   -5.8512   -3.0205    0.5909 C   0  0  0  0  0  0
    3.2164    0.1887   -0.9743 C   0  0  0  0  0  0
    3.1468   -0.6965    1.2944 C   0  0  0  0  0  0
    3.8031   -0.5851    0.0490 C   0  0  0  0  0  0
   -0.6170    4.9232   -0.4205 C   0  0  0  0  0  0
    0.7492    4.9250    1.6104 C   0  0  0  0  0  0
   -4.9468   -5.0214   -1.1734 C   0  0  0  0  0  0
   -6.1737   -4.3703    0.8312 C   0  0  0  0  0  0
    0.0909    5.6259    0.5821 C   0  0  0  0  0  0
    5.1479   -1.2154   -0.1727 C   0  0  0  0  0  0
   -5.7211   -5.3709   -0.0503 C   0  0  0  0  0  0
   -1.3045    5.6504   -1.5412 C   0  0  0  0  0  0
    6.5546   -3.2275   -0.2858 C   0  0  0  0  0  0
    4.1060   -3.5001   -0.0864 C   0  0  0  0  0  0
    7.2488   -3.3793    1.0749 C   0  0  0  0  0  0
    3.4394   -3.6730   -1.4591 C   0  0  0  0  0  0
   -3.3117    1.1245   -0.8688 H   0  0  0  0  0  0
   -4.5312    1.1721    0.3893 H   0  0  0  0  0  0
   -2.3998   -2.4414   -0.1318 H   0  0  0  0  0  0
   -2.0121   -1.1072   -1.1973 H   0  0  0  0  0  0
   -2.8152    0.9516    2.1472 H   0  0  0  0  0  0
   -2.4885    2.3340    1.1507 H   0  0  0  0  0  0
   -0.2949   -1.3653    0.5449 H   0  0  0  0  0  0
   -1.4835   -1.2576    1.8168 H   0  0  0  0  0  0
   -5.6277   -0.6214   -0.6176 H   0  0  0  0  0  0
   -4.4479   -1.0606   -1.8303 H   0  0  0  0  0  0
    1.5272    1.3918   -1.5651 H   0  0  0  0  0  0
    1.4051   -0.1728    2.4529 H   0  0  0  0  0  0
   -1.1576    2.9599   -1.1548 H   0  0  0  0  0  0
    1.2221    2.9892    2.4348 H   0  0  0  0  0  0
   -4.0288   -3.4132   -2.2786 H   0  0  0  0  0  0
   -6.2034   -2.2591    1.2716 H   0  0  0  0  0  0
    3.7201    0.3068   -1.9230 H   0  0  0  0  0  0
    3.5991   -1.2564    2.1003 H   0  0  0  0  0  0
    1.2908    5.4673    2.3716 H   0  0  0  0  0  0
   -4.6008   -5.7890   -1.8501 H   0  0  0  0  0  0
   -6.7693   -4.6385    1.6916 H   0  0  0  0  0  0
    0.1455    6.7048    0.5692 H   0  0  0  0  0  0
   -5.9689   -6.4059    0.1342 H   0  0  0  0  0  0
    6.4385   -4.2098   -0.7459 H   0  0  0  0  0  0
    7.1999   -2.6740   -0.9702 H   0  0  0  0  0  0
    4.4436   -4.4751    0.2678 H   0  0  0  0  0  0
    3.3676   -3.1906    0.6501 H   0  0  0  0  0  0
    8.2099   -3.8818    0.9649 H   0  0  0  0  0  0
    7.4340   -2.4088    1.5363 H   0  0  0  0  0  0
    6.6429   -3.9685    1.7638 H   0  0  0  0  0  0
    2.6240   -4.3943   -1.4038 H   0  0  0  0  0  0
    3.0234   -2.7341   -1.8248 H   0  0  0  0  0  0
    4.1521   -4.0350   -2.2007 H   0  0  0  0  0  0
   -2.2911    7.3776   -1.9584 H   0  0  0  0  0  0
   -1.6885    7.2349   -0.3192 H   0  0  0  0  0  0
   -3.6379   -0.7277    0.1035 N   0  3  2  0  0  0
   -3.8947   -1.0104    1.0386 H   0  0  0  0  0  0
  1 29  2  0  0  0
  2 31  2  0  0  0
  3 29  1  0  0  0
  3 32  1  0  0  0
  3 33  1  0  0  0
  4 31  1  0  0  0
  4 69  1  0  0  0
  4 70  1  0  0  0
  5  7  1  0  0  0
  5 36  1  0  0  0
  5 37  1  0  0  0
  5 71  1  0  0  0
  6  8  1  0  0  0
  6 38  1  0  0  0
  6 39  1  0  0  0
  6 71  1  0  0  0
  7  9  1  0  0  0
  7 40  1  0  0  0
  7 41  1  0  0  0
  8  9  1  0  0  0
  8 42  1  0  0  0
  8 43  1  0  0  0
  9 11  2  0  0  0
 10 13  1  0  0  0
 10 44  1  0  0  0
 10 45  1  0  0  0
 10 71  1  0  0  0
 11 12  1  0  0  0
 11 14  1  0  0  0
 12 15  2  0  0  0
 12 16  1  0  0  0
 13 19  2  0  0  0
 13 20  1  0  0  0
 14 17  2  0  0  0
 14 18  1  0  0  0
 15 21  1  0  0  0
 15 46  1  0  0  0
 16 22  2  0  0  0
 16 47  1  0  0  0
 17 24  1  0  0  0
 17 48  1  0  0  0
 18 25  2  0  0  0
 18 49  1  0  0  0
 19 26  1  0  0  0
 19 50  1  0  0  0
 20 27  2  0  0  0
 20 51  1  0  0  0
 21 23  2  0  0  0
 21 52  1  0  0  0
 22 23  1  0  0  0
 22 53  1  0  0  0
 23 29  1  0  0  0
 24 28  2  0  0  0
 24 31  1  0  0  0
 25 28  1  0  0  0
 25 54  1  0  0  0
 26 30  2  0  0  0
 26 55  1  0  0  0
 27 30  1  0  0  0
 27 56  1  0  0  0
 28 57  1  0  0  0
 30 58  1  0  0  0
 32 34  1  0  0  0
 32 59  1  0  0  0
 32 60  1  0  0  0
 33 35  1  0  0  0
 33 61  1  0  0  0
 33 62  1  0  0  0
 34 63  1  0  0  0
 34 64  1  0  0  0
 34 65  1  0  0  0
 35 66  1  0  0  0
 35 67  1  0  0  0
 35 68  1  0  0  0
 71 72  1  0  0  0
M  CHG  1  71   1
M  END
> <LID>
L022233

> <PC_CID>
18452973

> <Names>


> <CAS_Numbers>


$$$$
15411179
                    3D
 Structure written by MMmdl.
 44 46  0  0  1  0            999 V2000
   -5.3960    1.3766    0.6487 O   0  0  0  0  0  0
    3.5130    2.9817   -0.3573 O   0  0  0  0  0  0
    0.2900   -1.5504   -0.3009 C   0  0  0  0  0  0
   -0.8004   -2.4585   -0.8628 C   0  0  0  0  0  0
   -2.1768   -2.2503   -0.2127 C   0  0  0  0  0  0
    0.0037   -0.3674    0.2967 C   0  0  0  0  0  0
   -2.4674   -0.8048    0.1383 C   0  0  0  0  0  0
   -1.4030    0.0885    0.4081 C   0  0  0  0  0  0
    1.7151   -2.0855   -0.4545 C   0  0  0  0  0  0
    1.0893    0.4743    0.8285 C   0  0  0  0  0  0
   -3.8064   -0.3696    0.2221 C   0  0  0  0  0  0
   -1.7127    1.4258    0.7546 C   0  0  0  0  0  0
   -4.0987    0.9616    0.5699 C   0  0  0  0  0  0
   -3.0495    1.8599    0.8365 C   0  0  0  0  0  0
    1.7913    1.3445   -0.0314 C   0  0  0  0  0  0
    1.3975    0.4364    2.2038 C   0  0  0  0  0  0
    3.8914   -1.7560   -1.5434 C   0  0  0  0  0  0
    1.8747   -1.8675   -2.9310 C   0  0  0  0  0  0
    2.8245    2.1535    0.4798 C   0  0  0  0  0  0
    2.4282    1.2501    2.7131 C   0  0  0  0  0  0
    3.1440    2.1051    1.8517 C   0  0  0  0  0  0
   -0.8841   -2.2529   -1.9290 H   0  0  0  0  0  0
   -0.5202   -3.5082   -0.7716 H   0  0  0  0  0  0
   -2.2243   -2.8202    0.7160 H   0  0  0  0  0  0
   -2.9594   -2.6476   -0.8603 H   0  0  0  0  0  0
    2.2672   -1.8660    0.4602 H   0  0  0  0  0  0
    1.7110   -3.1735   -0.5325 H   0  0  0  0  0  0
   -4.6136   -1.0596    0.0227 H   0  0  0  0  0  0
   -0.9291    2.1403    0.9582 H   0  0  0  0  0  0
   -3.2636    2.8846    1.1027 H   0  0  0  0  0  0
    1.5399    1.3914   -1.0811 H   0  0  0  0  0  0
    0.8493   -0.2170    2.8672 H   0  0  0  0  0  0
    4.4152   -1.2483   -2.3542 H   0  0  0  0  0  0
    4.3069   -1.3869   -0.6049 H   0  0  0  0  0  0
    4.1016   -2.8240   -1.6155 H   0  0  0  0  0  0
    0.8743   -1.4580   -3.0605 H   0  0  0  0  0  0
    2.4859   -1.4641   -3.7392 H   0  0  0  0  0  0
    1.8284   -2.9509   -3.0487 H   0  0  0  0  0  0
    2.6698    1.2189    3.7654 H   0  0  0  0  0  0
    3.9343    2.7249    2.2496 H   0  0  0  0  0  0
   -5.4827    2.2858    0.8908 H   0  0  0  0  0  0
    4.1695    3.4982    0.0849 H   0  0  0  0  0  0
    2.4365   -1.4956   -1.6124 N   0  3  0  0  0  0
    2.3339   -0.4939   -1.5291 H   0  0  0  0  0  0
  1 13  1  0  0  0
  1 41  1  0  0  0
  2 19  1  0  0  0
  2 42  1  0  0  0
  3  4  1  0  0  0
  3  6  2  0  0  0
  3  9  1  0  0  0
  4  5  1  0  0  0
  4 22  1  0  0  0
  4 23  1  0  0  0
  5  7  1  0  0  0
  5 24  1  0  0  0
  5 25  1  0  0  0
  6  8  1  0  0  0
  6 10  1  0  0  0
  7  8  2  0  0  0
  7 11  1  0  0  0
  8 12  1  0  0  0
  9 26  1  0  0  0
  9 27  1  0  0  0
  9 43  1  0  0  0
 10 15  2  0  0  0
 10 16  1  0  0  0
 11 13  2  0  0  0
 11 28  1  0  0  0
 12 14  2  0  0  0
 12 29  1  0  0  0
 13 14  1  0  0  0
 14 30  1  0  0  0
 15 19  1  0  0  0
 15 31  1  0  0  0
 16 20  2  0  0  0
 16 32  1  0  0  0
 17 33  1  0  0  0
 17 34  1  0  0  0
 17 35  1  0  0  0
 17 43  1  0  0  0
 18 36  1  0  0  0
 18 37  1  0  0  0
 18 38  1  0  0  0
 18 43  1  0  0  0
 19 21  2  0  0  0
 20 21  1  0  0  0
 20 39  1  0  0  0
 21 40  1  0  0  0
 43 44  1  0  0  0
M  CHG  1  43   1
M  END
> <LID>
L017985

> <PC_CID>
15411179

> <Names>


> <CAS_Numbers>


$$$$
15411174
                    3D
 Structure written by MMmdl.
 59 62  0  0  1  0            999 V2000
   -1.5942    2.3070   -2.2939 O   0  0  0  0  0  0
    1.3091   -1.2573    0.7518 C   0  0  0  0  0  0
    2.0910   -2.5444    0.9904 C   0  0  0  0  0  0
    3.1740   -2.3912    2.0726 C   0  0  0  0  0  0
    4.0076   -1.0994    1.9691 C   0  0  0  0  0  0
    1.8615   -0.1966    0.1091 C   0  0  0  0  0  0
   -0.1088   -1.2440    1.3197 C   0  0  0  0  0  0
    3.2779   -0.2245   -0.3225 C   0  0  0  0  0  0
    4.3133   -0.6772    0.5385 C   0  0  0  0  0  0
   -2.4710   -1.0549    0.6132 C   0  0  0  0  0  0
    1.0888    1.0374   -0.1115 C   0  0  0  0  0  0
    3.6090    0.1964   -1.6300 C   0  0  0  0  0  0
    5.6471   -0.7128    0.0789 C   0  0  0  0  0  0
   -3.3298   -0.8330   -0.6441 C   0  0  0  0  0  0
   -1.1397   -3.0304   -0.0575 C   0  0  0  0  0  0
    4.9416    0.1612   -2.0815 C   0  0  0  0  0  0
    5.9610   -0.2963   -1.2278 C   0  0  0  0  0  0
    0.1111    1.0899   -1.1273 C   0  0  0  0  0  0
    1.3484    2.1757    0.6788 C   0  0  0  0  0  0
   -4.6622   -0.1901   -0.3127 C   0  0  0  0  0  0
   -0.6337    2.2683   -1.3261 C   0  0  0  0  0  0
    0.6076    3.3559    0.4727 C   0  0  0  0  0  0
   -0.3864    3.4011   -0.5250 C   0  0  0  0  0  0
   -4.7853    1.2155   -0.3047 C   0  0  0  0  0  0
   -5.7814   -0.9919   -0.0047 C   0  0  0  0  0  0
   -6.0208    1.8152    0.0077 C   0  0  0  0  0  0
   -7.0166   -0.3912    0.3076 C   0  0  0  0  0  0
   -7.1366    1.0121    0.3136 C   0  0  0  0  0  0
    1.4224   -3.3629    1.2564 H   0  0  0  0  0  0
    2.5548   -2.8445    0.0495 H   0  0  0  0  0  0
    3.8421   -3.2498    1.9960 H   0  0  0  0  0  0
    2.7269   -2.4482    3.0656 H   0  0  0  0  0  0
    4.9317   -1.2122    2.5373 H   0  0  0  0  0  0
    3.4698   -0.2800    2.4481 H   0  0  0  0  0  0
   -0.1888   -1.9145    2.1767 H   0  0  0  0  0  0
   -0.2964   -0.2472    1.7197 H   0  0  0  0  0  0
   -2.9740   -1.7156    1.3211 H   0  0  0  0  0  0
   -2.3731   -0.0887    1.1101 H   0  0  0  0  0  0
    2.8365    0.5428   -2.3009 H   0  0  0  0  0  0
    6.4382   -1.0554    0.7298 H   0  0  0  0  0  0
   -2.7985   -0.1970   -1.3534 H   0  0  0  0  0  0
   -3.5219   -1.7729   -1.1609 H   0  0  0  0  0  0
   -1.3714   -3.6390    0.8174 H   0  0  0  0  0  0
   -1.8782   -3.2519   -0.8267 H   0  0  0  0  0  0
   -0.1760   -3.3496   -0.4527 H   0  0  0  0  0  0
    5.1808    0.4829   -3.0844 H   0  0  0  0  0  0
    6.9839   -0.3245   -1.5734 H   0  0  0  0  0  0
   -0.0722    0.2276   -1.7515 H   0  0  0  0  0  0
    2.1078    2.1438    1.4468 H   0  0  0  0  0  0
    0.8006    4.2268    1.0817 H   0  0  0  0  0  0
   -0.9531    4.3086   -0.6742 H   0  0  0  0  0  0
   -3.9330    1.8375   -0.5367 H   0  0  0  0  0  0
   -5.6967   -2.0689   -0.0061 H   0  0  0  0  0  0
   -6.1127    2.8914    0.0130 H   0  0  0  0  0  0
   -7.8724   -1.0069    0.5427 H   0  0  0  0  0  0
   -8.0840    1.4722    0.5531 H   0  0  0  0  0  0
   -2.0089    3.1526   -2.3747 H   0  0  0  0  0  0
   -1.1229   -1.5879    0.2871 N   0  3  2  0  0  0
   -0.8349   -1.0915   -0.5440 H   0  0  0  0  0  0
  1 21  1  0  0  0
  1 57  1  0  0  0
  2  3  1  0  0  0
  2  6  2  0  0  0
  2  7  1  0  0  0
  3  4  1  0  0  0
  3 29  1  0  0  0
  3 30  1  0  0  0
  4  5  1  0  0  0
  4 31  1  0  0  0
  4 32  1  0  0  0
  5  9  1  0  0  0
  5 33  1  0  0  0
  5 34  1  0  0  0
  6  8  1  0  0  0
  6 11  1  0  0  0
  7 35  1  0  0  0
  7 36  1  0  0  0
  7 58  1  0  0  0
  8  9  1  0  0  0
  8 12  2  0  0  0
  9 13  2  0  0  0
 10 14  1  0  0  0
 10 37  1  0  0  0
 10 38  1  0  0  0
 10 58  1  0  0  0
 11 18  2  0  0  0
 11 19  1  0  0  0
 12 16  1  0  0  0
 12 39  1  0  0  0
 13 17  1  0  0  0
 13 40  1  0  0  0
 14 20  1  0  0  0
 14 41  1  0  0  0
 14 42  1  0  0  0
 15 43  1  0  0  0
 15 44  1  0  0  0
 15 45  1  0  0  0
 15 58  1  0  0  0
 16 17  2  0  0  0
 16 46  1  0  0  0
 17 47  1  0  0  0
 18 21  1  0  0  0
 18 48  1  0  0  0
 19 22  2  0  0  0
 19 49  1  0  0  0
 20 24  2  0  0  0
 20 25  1  0  0  0
 21 23  2  0  0  0
 22 23  1  0  0  0
 22 50  1  0  0  0
 23 51  1  0  0  0
 24 26  1  0  0  0
 24 52  1  0  0  0
 25 27  2  0  0  0
 25 53  1  0  0  0
 26 28  2  0  0  0
 26 54  1  0  0  0
 27 28  1  0  0  0
 27 55  1  0  0  0
 28 56  1  0  0  0
 58 59  1  0  0  0
M  CHG  1  58   1
M  END
> <LID>
L017983

> <PC_CID>
15411174

> <Names>


> <CAS_Numbers>


$$$$
15411175
                    3D
 Structure written by MMmdl.
 49 51  0  0  1  0            999 V2000
   -4.0497    1.9990   -1.2611 O   0  0  0  0  0  0
    1.5230   -2.2455   -0.3336 C   0  0  0  0  0  0
    2.3239   -2.6356    0.9214 C   0  0  0  0  0  0
    0.2551   -1.4576   -0.0011 C   0  0  0  0  0  0
    3.3019   -1.5571    1.4222 C   0  0  0  0  0  0
    2.6691   -0.1869    1.7237 C   0  0  0  0  0  0
    0.2000   -0.1011   -0.0332 C   0  0  0  0  0  0
    2.5588    0.6935    0.4841 C   0  0  0  0  0  0
    1.3935    0.7165   -0.3294 C   0  0  0  0  0  0
   -0.9377   -2.3378    0.3864 C   0  0  0  0  0  0
   -1.0296    0.6188    0.3349 C   0  0  0  0  0  0
    3.6622    1.5069    0.1454 C   0  0  0  0  0  0
    1.3590    1.5700   -1.4549 C   0  0  0  0  0  0
    3.6171    2.3455   -0.9828 C   0  0  0  0  0  0
    2.4625    2.3784   -1.7831 C   0  0  0  0  0  0
   -1.9686    0.9709   -0.6567 C   0  0  0  0  0  0
   -1.2468    0.9915    1.6776 C   0  0  0  0  0  0
   -2.3404   -4.2332   -0.3076 C   0  0  0  0  0  0
   -2.0124   -2.3568   -1.8492 C   0  0  0  0  0  0
   -3.1376    1.6712   -0.3011 C   0  0  0  0  0  0
   -2.4153    1.6940    2.0305 C   0  0  0  0  0  0
   -3.3618    2.0312    1.0429 C   0  0  0  0  0  0
    1.2396   -3.1504   -0.8704 H   0  0  0  0  0  0
    2.1598   -1.7006   -1.0311 H   0  0  0  0  0  0
    1.6505   -2.9257    1.7281 H   0  0  0  0  0  0
    2.9066   -3.5291    0.6944 H   0  0  0  0  0  0
    4.1316   -1.4397    0.7238 H   0  0  0  0  0  0
    3.7476   -1.9341    2.3433 H   0  0  0  0  0  0
    3.2975    0.3373    2.4448 H   0  0  0  0  0  0
    1.7045   -0.3016    2.2178 H   0  0  0  0  0  0
   -0.6161   -2.9958    1.1940 H   0  0  0  0  0  0
   -1.7717   -1.7655    0.7916 H   0  0  0  0  0  0
    4.5539    1.4904    0.7552 H   0  0  0  0  0  0
    0.4803    1.6050   -2.0817 H   0  0  0  0  0  0
    4.4667    2.9641   -1.2321 H   0  0  0  0  0  0
    2.4226    3.0229   -2.6489 H   0  0  0  0  0  0
   -1.7967    0.7029   -1.6889 H   0  0  0  0  0  0
   -0.5227    0.7382    2.4382 H   0  0  0  0  0  0
   -2.6281   -4.8673   -1.1470 H   0  0  0  0  0  0
   -1.8594   -4.8700    0.4358 H   0  0  0  0  0  0
   -3.2475   -3.8173    0.1333 H   0  0  0  0  0  0
   -2.3310   -3.0017   -2.6689 H   0  0  0  0  0  0
   -2.8806   -1.7946   -1.5026 H   0  0  0  0  0  0
   -1.2865   -1.6527   -2.2560 H   0  0  0  0  0  0
   -2.5852    1.9760    3.0592 H   0  0  0  0  0  0
   -4.2560    2.5697    1.3212 H   0  0  0  0  0  0
   -4.7898    2.4803   -0.9238 H   0  0  0  0  0  0
   -1.4254   -3.1587   -0.7511 N   0  3  0  0  0  0
   -0.6143   -3.6222   -1.1355 H   0  0  0  0  0  0
  1 20  1  0  0  0
  1 47  1  0  0  0
  2  3  1  0  0  0
  2  4  1  0  0  0
  2 23  1  0  0  0
  2 24  1  0  0  0
  3  5  1  0  0  0
  3 25  1  0  0  0
  3 26  1  0  0  0
  4  7  2  0  0  0
  4 10  1  0  0  0
  5  6  1  0  0  0
  5 27  1  0  0  0
  5 28  1  0  0  0
  6  8  1  0  0  0
  6 29  1  0  0  0
  6 30  1  0  0  0
  7  9  1  0  0  0
  7 11  1  0  0  0
  8  9  1  0  0  0
  8 12  2  0  0  0
  9 13  2  0  0  0
 10 31  1  0  0  0
 10 32  1  0  0  0
 10 48  1  0  0  0
 11 16  2  0  0  0
 11 17  1  0  0  0
 12 14  1  0  0  0
 12 33  1  0  0  0
 13 15  1  0  0  0
 13 34  1  0  0  0
 14 15  2  0  0  0
 14 35  1  0  0  0
 15 36  1  0  0  0
 16 20  1  0  0  0
 16 37  1  0  0  0
 17 21  2  0  0  0
 17 38  1  0  0  0
 18 39  1  0  0  0
 18 40  1  0  0  0
 18 41  1  0  0  0
 18 48  1  0  0  0
 19 42  1  0  0  0
 19 43  1  0  0  0
 19 44  1  0  0  0
 19 48  1  0  0  0
 20 22  2  0  0  0
 21 22  1  0  0  0
 21 45  1  0  0  0
 22 46  1  0  0  0
 48 49  1  0  0  0
M  CHG  1  48   1
M  END
> <LID>
L017984

> <PC_CID>
15411175

> <Names>


> <CAS_Numbers>


$$$$
5284595
                    3D
 Structure written by MMmdl.
 45 49  0  0  1  0            999 V2000
   -2.3307   -0.0999    1.3889 O   0  0  0  0  0  0
   -3.5486   -2.2991    0.4337 O   0  0  0  0  0  0
   -3.6945    2.4431    0.7662 O   0  0  0  0  0  0
   -0.1396   -0.6529    0.6099 C   0  0  1  0  0  0
    0.5507   -1.4774   -0.4906 C   0  0  2  0  0  0
    1.6981   -0.6092   -1.0622 C   0  0  1  0  0  0
   -1.4651   -1.2402    1.2069 C   0  0  2  0  0  0
    0.8940   -0.3873    1.7302 C   0  0  0  0  0  0
   -0.6322    0.6418    0.0250 C   0  0  0  0  0  0
    1.1879    0.7333   -1.6659 C   0  0  0  0  0  0
    2.1718    0.2987    1.2107 C   0  0  0  0  0  0
    0.0006    1.4021   -0.9727 C   0  0  0  0  0  0
   -2.1413   -2.3194    0.3095 C   0  0  2  0  0  0
   -0.4666   -1.9475   -1.5146 C   0  0  0  0  0  0
   -1.8625    0.9019    0.5922 C   0  0  0  0  0  0
   -1.7063   -2.3067   -1.1467 C   0  0  0  0  0  0
    4.0036    0.1555   -0.4653 C   0  0  0  0  0  0
   -0.6405    2.6075   -1.3287 C   0  0  0  0  0  0
   -2.4845    2.1139    0.2303 C   0  0  0  0  0  0
   -1.8618    2.9724   -0.7093 C   0  0  0  0  0  0
    5.1339   -0.1922    0.4831 C   0  0  0  0  0  0
    5.8718    0.7098    1.1477 C   0  0  0  0  0  0
    0.9761   -2.3858   -0.0603 H   0  0  0  0  0  0
    2.1936   -1.1744   -1.8530 H   0  0  0  0  0  0
   -1.2882   -1.6813    2.1889 H   0  0  0  0  0  0
    1.1673   -1.3349    2.1966 H   0  0  0  0  0  0
    0.4517    0.2206    2.5208 H   0  0  0  0  0  0
    0.8522    0.5320   -2.6837 H   0  0  0  0  0  0
    1.9909    1.4612   -1.7735 H   0  0  0  0  0  0
    1.9745    1.3440    0.9706 H   0  0  0  0  0  0
    2.9157    0.3085    2.0076 H   0  0  0  0  0  0
   -1.8278   -3.2962    0.6797 H   0  0  0  0  0  0
   -0.1670   -1.9859   -2.5518 H   0  0  0  0  0  0
   -2.4160   -2.6505   -1.8852 H   0  0  0  0  0  0
    4.2577   -0.2627   -1.4400 H   0  0  0  0  0  0
    3.9331    1.2372   -0.5883 H   0  0  0  0  0  0
   -0.2196    3.2369   -2.0989 H   0  0  0  0  0  0
   -2.3475    3.8942   -0.9942 H   0  0  0  0  0  0
   -3.7715   -2.3661    1.3497 H   0  0  0  0  0  0
    5.3425   -1.2438    0.6183 H   0  0  0  0  0  0
   -4.0185    1.7793    1.3561 H   0  0  0  0  0  0
    6.6655    0.3972    1.8105 H   0  0  0  0  0  0
    5.6958    1.7704    1.0407 H   0  0  0  0  0  0
    2.7143   -0.4034    0.0159 N   0  3  2  0  0  0
    2.9396   -1.3364    0.3301 H   0  0  0  0  0  0
  1  7  1  0  0  0
  1 15  1  0  0  0
  2 13  1  0  0  0
  2 39  1  0  0  0
  3 19  1  0  0  0
  3 41  1  0  0  0
  4  5  1  0  0  0
  4  7  1  0  0  0
  4  8  1  0  0  0
  4  9  1  0  0  0
  5  6  1  0  0  0
  5 14  1  0  0  0
  5 23  1  0  0  0
  6 10  1  0  0  0
  6 24  1  0  0  0
  6 44  1  0  0  0
  7 13  1  0  0  0
  7 25  1  0  0  0
  8 11  1  0  0  0
  8 26  1  0  0  0
  8 27  1  0  0  0
  9 12  2  0  0  0
  9 15  1  0  0  0
 10 12  1  0  0  0
 10 28  1  0  0  0
 10 29  1  0  0  0
 11 30  1  0  0  0
 11 31  1  0  0  0
 11 44  1  0  0  0
 12 18  1  0  0  0
 13 16  1  0  0  0
 13 32  1  0  0  0
 14 16  2  0  0  0
 14 33  1  0  0  0
 15 19  2  0  0  0
 16 34  1  0  0  0
 17 21  1  0  0  0
 17 35  1  0  0  0
 17 36  1  0  0  0
 17 44  1  0  0  0
 18 20  2  0  0  0
 18 37  1  0  0  0
 19 20  1  0  0  0
 20 38  1  0  0  0
 21 22  2  0  0  0
 21 40  1  0  0  0
 22 42  1  0  0  0
 22 43  1  0  0  0
 44 45  1  0  0  0
M  CHG  1  44   1
M  END
> <LID>
L000967

> <PC_CID>
5284595

> <Names>
Nalorphine

> <CAS_Numbers>
1041-90-3;57-29-4;62-67-9;97889-94-6

$$$$
10481829
                    3D
 Structure written by MMmdl.
 73 76  0  0  1  0            999 V2000
    2.4492    6.3178   -1.3899 S   0  0  0  0  0  0
    3.9050   -5.9023    0.5756 O   0  0  0  0  0  0
   -5.5466    1.4575   -0.0495 O   0  0  0  0  0  0
    3.8175    6.3699   -0.8531 O   0  0  0  0  0  0
    2.1842    6.6235   -2.8034 O   0  0  0  0  0  0
    1.8761    4.6952   -1.1509 N   0  0  0  0  0  0
   -5.6214   -0.8118   -0.2343 N   0  0  0  0  0  0
    3.0079   -0.7626    1.1658 C   0  0  0  0  0  0
    0.9091   -2.1350    0.9542 C   0  0  0  0  0  0
    3.6682   -1.6641    0.1083 C   0  0  0  0  0  0
    1.6080   -3.0012   -0.1056 C   0  0  0  0  0  0
    1.4934   -0.7266    0.9893 C   0  0  0  0  0  0
    0.7612    0.4111    0.8691 C   0  0  0  0  0  0
    3.7873   -3.9365   -0.8363 C   0  0  0  0  0  0
   -0.6924    0.3758    0.6389 C   0  0  0  0  0  0
    1.3715    1.7480    0.9713 C   0  0  0  0  0  0
    3.4530   -5.3719   -0.5955 C   0  0  0  0  0  0
    1.3557    2.6185   -0.1393 C   0  0  0  0  0  0
   -1.2125   -0.0619   -0.5982 C   0  0  0  0  0  0
   -1.5787    0.8312    1.6371 C   0  0  0  0  0  0
    1.9380    2.1898    2.1858 C   0  0  0  0  0  0
    2.7535   -6.3097   -1.3038 C   0  0  0  0  0  0
    1.9157    3.9105   -0.0558 C   0  0  0  0  0  0
   -2.6024   -0.0741   -0.8223 C   0  0  0  0  0  0
   -2.9691    0.8200    1.4143 C   0  0  0  0  0  0
   -3.4904    0.3466    0.1918 C   0  0  0  0  0  0
    2.5007    3.4760    2.2791 C   0  0  0  0  0  0
    2.4927    4.3334    1.1628 C   0  0  0  0  0  0
    2.7768   -7.4990   -0.5243 C   0  0  0  0  0  0
    3.4871   -7.1972    0.6026 C   0  0  0  0  0  0
   -4.9736    0.3674   -0.0424 C   0  0  0  0  0  0
   -7.0591   -0.8333   -0.5414 C   0  0  0  0  0  0
   -5.0182   -2.1445   -0.0670 C   0  0  0  0  0  0
   -7.3093   -0.7109   -2.0510 C   0  0  0  0  0  0
   -4.9331   -2.5475    1.4126 C   0  0  0  0  0  0
    1.3235    7.3216   -0.3373 C   0  0  0  0  0  0
    3.4582    0.2269    1.1083 H   0  0  0  0  0  0
    3.2267   -1.1423    2.1645 H   0  0  0  0  0  0
    1.0542   -2.5809    1.9389 H   0  0  0  0  0  0
   -0.1660   -2.1438    0.7840 H   0  0  0  0  0  0
    3.5576   -1.2168   -0.8811 H   0  0  0  0  0  0
    4.7386   -1.7255    0.3091 H   0  0  0  0  0  0
    1.3859   -2.6190   -1.1034 H   0  0  0  0  0  0
    1.2010   -4.0116   -0.0577 H   0  0  0  0  0  0
    3.5525   -3.6611   -1.8655 H   0  0  0  0  0  0
    4.8648   -3.8108   -0.7215 H   0  0  0  0  0  0
    0.9092    2.2862   -1.0658 H   0  0  0  0  0  0
   -0.5434   -0.3885   -1.3809 H   0  0  0  0  0  0
   -1.1930    1.1912    2.5799 H   0  0  0  0  0  0
    1.9433    1.5406    3.0494 H   0  0  0  0  0  0
    2.2819   -6.1588   -2.2639 H   0  0  0  0  0  0
   -2.9841   -0.4064   -1.7771 H   0  0  0  0  0  0
   -3.6350    1.1721    2.1891 H   0  0  0  0  0  0
    2.9382    3.8070    3.2094 H   0  0  0  0  0  0
    2.9330    5.3130    1.2637 H   0  0  0  0  0  0
    2.3302   -8.4544   -0.7578 H   0  0  0  0  0  0
    3.7742   -7.7572    1.4806 H   0  0  0  0  0  0
    1.4546    4.2700   -1.9636 H   0  0  0  0  0  0
   -7.5114   -1.7547   -0.1718 H   0  0  0  0  0  0
   -7.5835   -0.0347   -0.0139 H   0  0  0  0  0  0
   -5.6111   -2.8876   -0.6021 H   0  0  0  0  0  0
   -4.0345   -2.2073   -0.5274 H   0  0  0  0  0  0
   -8.3766   -0.7444   -2.2702 H   0  0  0  0  0  0
   -6.9207    0.2297   -2.4426 H   0  0  0  0  0  0
   -6.8323   -1.5249   -2.5976 H   0  0  0  0  0  0
   -4.5223   -3.5519    1.5158 H   0  0  0  0  0  0
   -4.2918   -1.8705    1.9770 H   0  0  0  0  0  0
   -5.9184   -2.5430    1.8797 H   0  0  0  0  0  0
    1.4261    7.0291    0.7064 H   0  0  0  0  0  0
    1.5801    8.3754   -0.4419 H   0  0  0  0  0  0
    0.2937    7.1677   -0.6581 H   0  0  0  0  0  0
    3.0807   -3.0281    0.0999 N   0  3  1  0  0  0
    3.2356   -3.4077    1.0233 H   0  0  0  0  0  0
  1  4  2  0  0  0
  1  5  2  0  0  0
  1  6  1  0  0  0
  1 36  1  0  0  0
  2 17  1  0  0  0
  2 30  1  0  0  0
  3 31  2  0  0  0
  6 23  1  0  0  0
  6 58  1  0  0  0
  7 31  1  0  0  0
  7 32  1  0  0  0
  7 33  1  0  0  0
  8 10  1  0  0  0
  8 12  1  0  0  0
  8 37  1  0  0  0
  8 38  1  0  0  0
  9 11  1  0  0  0
  9 12  1  0  0  0
  9 39  1  0  0  0
  9 40  1  0  0  0
 10 41  1  0  0  0
 10 42  1  0  0  0
 10 72  1  0  0  0
 11 43  1  0  0  0
 11 44  1  0  0  0
 11 72  1  0  0  0
 12 13  2  0  0  0
 13 15  1  0  0  0
 13 16  1  0  0  0
 14 17  1  0  0  0
 14 45  1  0  0  0
 14 46  1  0  0  0
 14 72  1  0  0  0
 15 19  2  0  0  0
 15 20  1  0  0  0
 16 18  2  0  0  0
 16 21  1  0  0  0
 17 22  2  0  0  0
 18 23  1  0  0  0
 18 47  1  0  0  0
 19 24  1  0  0  0
 19 48  1  0  0  0
 20 25  2  0  0  0
 20 49  1  0  0  0
 21 27  2  0  0  0
 21 50  1  0  0  0
 22 29  1  0  0  0
 22 51  1  0  0  0
 23 28  2  0  0  0
 24 26  2  0  0  0
 24 52  1  0  0  0
 25 26  1  0  0  0
 25 53  1  0  0  0
 26 31  1  0  0  0
 27 28  1  0  0  0
 27 54  1  0  0  0
 28 55  1  0  0  0
 29 30  2  0  0  0
 29 56  1  0  0  0
 30 57  1  0  0  0
 32 34  1  0  0  0
 32 59  1  0  0  0
 32 60  1  0  0  0
 33 35  1  0  0  0
 33 61  1  0  0  0
 33 62  1  0  0  0
 34 63  1  0  0  0
 34 64  1  0  0  0
 34 65  1  0  0  0
 35 66  1  0  0  0
 35 67  1  0  0  0
 35 68  1  0  0  0
 36 69  1  0  0  0
 36 70  1  0  0  0
 36 71  1  0  0  0
 72 73  1  0  0  0
M  CHG  1  72   1
M  END
> <LID>
L023121

> <PC_CID>
10481829

> <Names>


> <CAS_Numbers>


$$$$
44215665
                    3D
 Structure written by MMmdl.
 76 78  0  0  1  0            999 V2000
    0.8011    2.3542    1.5198 S   0  0  0  0  0  0
   -0.1379   -1.1597    1.4697 O   0  0  0  0  0  0
   -3.5380    1.4688   -1.0761 O   0  0  0  0  0  0
    5.1250    2.6707   -1.4444 O   0  0  0  0  0  0
    3.0545    5.6632    0.4974 O   0  0  0  0  0  0
    2.8533   -0.6673   -2.5638 O   0  0  0  0  0  0
  -10.8528   -2.6998   -0.8274 O   0  0  0  0  0  0
   -2.5590    0.2105    0.5235 N   0  0  0  0  0  0
    0.4867   -0.6622   -0.6468 N   0  0  0  0  0  0
    3.2024    2.1767   -0.3576 N   0  0  0  0  0  0
    3.7073   -0.5085   -0.4711 N   0  0  0  0  0  0
   -0.9690    1.8802    1.5132 C   0  0  0  0  0  0
   -1.1985    0.7484    0.4443 C   0  0  1  0  0  0
   -1.8227    3.1289    1.2058 C   0  0  0  0  0  0
   -1.3075    1.4125    2.9465 C   0  0  0  0  0  0
   -0.2258   -0.4471    0.4701 C   0  0  0  0  0  0
    1.0557    3.2829   -0.0360 C   0  0  0  0  0  0
    2.5616    3.4901   -0.3339 C   0  0  1  0  0  0
   -3.6152    0.5900   -0.2190 C   0  0  0  0  0  0
   -4.9738   -0.0909    0.0321 C   0  0  1  0  0  0
    4.8374    0.3768   -0.7811 C   0  0  1  0  0  0
    1.5628   -1.6348   -0.8033 C   0  0  0  0  0  0
    4.3976    1.8544   -0.8802 C   0  0  0  0  0  0
   -5.5006   -0.7676   -1.2509 C   0  0  0  0  0  0
    5.8756    0.2625    0.3549 C   0  0  0  0  0  0
    3.1909    4.4380    0.7066 C   0  0  0  0  0  0
    2.7819   -0.9060   -1.3589 C   0  0  0  0  0  0
    6.5161   -1.1091    0.4794 C   0  0  0  0  0  0
   -6.9238   -1.2866   -1.1424 C   0  0  0  0  0  0
    7.5137   -1.5077   -0.4350 C   0  0  0  0  0  0
    6.1143   -1.9927    1.5037 C   0  0  0  0  0  0
   -8.0085   -0.3856   -1.1861 C   0  0  0  0  0  0
   -7.1697   -2.6683   -0.9948 C   0  0  0  0  0  0
   -9.3295   -0.8624   -1.0794 C   0  0  0  0  0  0
   -8.4911   -3.1448   -0.8887 C   0  0  0  0  0  0
    8.1048   -2.7816   -0.3268 C   0  0  0  0  0  0
    6.7058   -3.2665    1.6113 C   0  0  0  0  0  0
   -9.5718   -2.2418   -0.9305 C   0  0  0  0  0  0
    7.7010   -3.6612    0.6963 C   0  0  0  0  0  0
   -1.0782    1.2081   -0.5381 H   0  0  0  0  0  0
   -2.8833    2.9409    1.3717 H   0  0  0  0  0  0
   -1.5433    3.9661    1.8464 H   0  0  0  0  0  0
   -1.7130    3.4537    0.1713 H   0  0  0  0  0  0
   -2.3491    1.1065    3.0427 H   0  0  0  0  0  0
   -0.6853    0.5776    3.2662 H   0  0  0  0  0  0
   -1.1449    2.2169    3.6649 H   0  0  0  0  0  0
   -2.6863   -0.5205    1.2067 H   0  0  0  0  0  0
    0.5428    4.2434    0.0247 H   0  0  0  0  0  0
    0.6014    2.7334   -0.8596 H   0  0  0  0  0  0
    2.6669    3.9490   -1.3185 H   0  0  0  0  0  0
   -5.6662    0.7027    0.3164 H   0  0  0  0  0  0
    5.2933    0.0835   -1.7287 H   0  0  0  0  0  0
    0.3317   -0.0440   -1.4304 H   0  0  0  0  0  0
    2.6928    1.4374    0.1026 H   0  0  0  0  0  0
    1.2487   -2.4089   -1.5041 H   0  0  0  0  0  0
    1.8164   -2.1319    0.1347 H   0  0  0  0  0  0
   -5.4775   -0.0635   -2.0845 H   0  0  0  0  0  0
   -4.8399   -1.5868   -1.5398 H   0  0  0  0  0  0
    6.6811    0.9817    0.1958 H   0  0  0  0  0  0
    5.4227    0.5358    1.3100 H   0  0  0  0  0  0
    3.5782   -0.7604    0.4981 H   0  0  0  0  0  0
   -5.8741   -1.4312    1.2851 H   0  0  0  0  0  0
   -4.3088   -1.8085    0.9384 H   0  0  0  0  0  0
    7.8259   -0.8378   -1.2229 H   0  0  0  0  0  0
    5.3506   -1.6980    2.2085 H   0  0  0  0  0  0
   -7.8314    0.6739   -1.3013 H   0  0  0  0  0  0
   -6.3482   -3.3691   -0.9633 H   0  0  0  0  0  0
    8.8678   -3.0839   -1.0290 H   0  0  0  0  0  0
    6.3960   -3.9409    2.3960 H   0  0  0  0  0  0
  -10.1564   -0.1680   -1.1132 H   0  0  0  0  0  0
   -8.6704   -4.2042   -0.7765 H   0  0  0  0  0  0
    8.1544   -4.6380    0.7791 H   0  0  0  0  0  0
  -10.9086   -3.6391   -0.7408 H   0  0  0  0  0  0
    3.7835    3.9374    1.6897 O   0  5  0  0  0  0
   -4.9458   -1.0547    1.1527 N   0  3  0  0  0  0
   -4.6526   -0.5854    1.9976 H   0  0  0  0  0  0
  1 12  1  0  0  0
  1 17  1  0  0  0
  2 16  2  0  0  0
  3 19  2  0  0  0
  4 23  2  0  0  0
  5 26  2  0  0  0
  6 27  2  0  0  0
  7 38  1  0  0  0
  7 73  1  0  0  0
  8 13  1  0  0  0
  8 19  1  0  0  0
  8 47  1  0  0  0
  9 16  1  0  0  0
  9 22  1  0  0  0
  9 53  1  0  0  0
 10 18  1  0  0  0
 10 23  1  0  0  0
 10 54  1  0  0  0
 11 21  1  0  0  0
 11 27  1  0  0  0
 11 61  1  0  0  0
 12 13  1  0  0  0
 12 14  1  0  0  0
 12 15  1  0  0  0
 13 16  1  0  0  0
 13 40  1  0  0  0
 14 41  1  0  0  0
 14 42  1  0  0  0
 14 43  1  0  0  0
 15 44  1  0  0  0
 15 45  1  0  0  0
 15 46  1  0  0  0
 17 18  1  0  0  0
 17 48  1  0  0  0
 17 49  1  0  0  0
 18 26  1  0  0  0
 18 50  1  0  0  0
 19 20  1  0  0  0
 20 24  1  0  0  0
 20 51  1  0  0  0
 20 75  1  0  0  0
 21 23  1  0  0  0
 21 25  1  0  0  0
 21 52  1  0  0  0
 22 27  1  0  0  0
 22 55  1  0  0  0
 22 56  1  0  0  0
 24 29  1  0  0  0
 24 57  1  0  0  0
 24 58  1  0  0  0
 25 28  1  0  0  0
 25 59  1  0  0  0
 25 60  1  0  0  0
 26 74  1  0  0  0
 28 30  2  0  0  0
 28 31  1  0  0  0
 29 32  2  0  0  0
 29 33  1  0  0  0
 30 36  1  0  0  0
 30 64  1  0  0  0
 31 37  2  0  0  0
 31 65  1  0  0  0
 32 34  1  0  0  0
 32 66  1  0  0  0
 33 35  2  0  0  0
 33 67  1  0  0  0
 34 38  2  0  0  0
 34 70  1  0  0  0
 35 38  1  0  0  0
 35 71  1  0  0  0
 36 39  2  0  0  0
 36 68  1  0  0  0
 37 39  1  0  0  0
 37 69  1  0  0  0
 39 72  1  0  0  0
 62 75  1  0  0  0
 63 75  1  0  0  0
 75 76  1  0  0  0
M  CHG  2  74  -1  75   1
M  END
> <LID>
L022020

> <PC_CID>
44215665

> <Names>


> <CAS_Numbers>
259151-53-6

$$$$
430245
                    3D
 Structure written by MMmdl.
 38 42  0  0  1  0            999 V2000
    1.3368    1.3583    1.1689 O   0  0  0  0  0  0
   -0.3316    3.9543    0.0224 O   0  0  0  0  0  0
    3.9796    0.1503    0.5459 O   0  0  0  0  0  0
   -0.7176    0.3177    0.6571 C   0  0  2  0  0  0
   -1.9431    0.2804   -0.2666 C   0  0  2  0  0  0
   -0.0370    1.7007    0.8843 C   0  0  2  0  0  0
   -2.2370   -1.2065   -0.5699 C   0  0  1  0  0  0
    0.4325   -0.4554    0.0845 C   0  0  0  0  0  0
   -1.1589   -0.3262    1.9960 C   0  0  0  0  0  0
   -1.0460   -1.9410   -1.2447 C   0  0  0  0  0  0
    0.3548   -1.5851   -0.7438 C   0  0  0  0  0  0
   -1.6573   -1.7749    1.8038 C   0  0  0  0  0  0
   -0.0214    2.6332   -0.3680 C   0  0  1  0  0  0
   -1.7727    1.1674   -1.4806 C   0  0  0  0  0  0
    1.5793    0.1860    0.5071 C   0  0  0  0  0  0
   -0.9339    2.2143   -1.5114 C   0  0  0  0  0  0
    1.5907   -2.1663   -1.0993 C   0  0  0  0  0  0
    2.8033   -0.4164    0.1528 C   0  0  0  0  0  0
    2.8039   -1.5967   -0.6338 C   0  0  0  0  0  0
   -2.8032    0.7064    0.2532 H   0  0  0  0  0  0
   -0.4911    2.2114    1.7352 H   0  0  0  0  0  0
   -3.1025   -1.2797   -1.2296 H   0  0  0  0  0  0
   -1.9529    0.2726    2.4445 H   0  0  0  0  0  0
   -0.3384   -0.3197    2.7151 H   0  0  0  0  0  0
   -1.0546   -1.7008   -2.3084 H   0  0  0  0  0  0
   -1.1813   -3.0216   -1.1857 H   0  0  0  0  0  0
   -0.8198   -2.4434    1.6034 H   0  0  0  0  0  0
   -2.1197   -2.1383    2.7217 H   0  0  0  0  0  0
    0.9856    2.6566   -0.7868 H   0  0  0  0  0  0
   -2.3910    0.9510   -2.3395 H   0  0  0  0  0  0
   -0.8805    2.8146   -2.4081 H   0  0  0  0  0  0
    1.6154   -3.0329   -1.7436 H   0  0  0  0  0  0
    3.7438   -2.0494   -0.9143 H   0  0  0  0  0  0
   -0.1609    4.5331   -0.7049 H   0  0  0  0  0  0
    3.8491    0.9359    1.0553 H   0  0  0  0  0  0
   -2.6390   -1.8778    0.6959 N   0  3  0  0  0  0
   -2.8233   -2.8536    0.5102 H   0  0  0  0  0  0
   -3.4973   -1.4463    1.0082 H   0  0  0  0  0  0
  1  6  1  0  0  0
  1 15  1  0  0  0
  2 13  1  0  0  0
  2 34  1  0  0  0
  3 18  1  0  0  0
  3 35  1  0  0  0
  4  5  1  0  0  0
  4  6  1  0  0  0
  4  8  1  0  0  0
  4  9  1  0  0  0
  5  7  1  0  0  0
  5 14  1  0  0  0
  5 20  1  0  0  0
  6 13  1  0  0  0
  6 21  1  0  0  0
  7 10  1  0  0  0
  7 22  1  0  0  0
  7 36  1  0  0  0
  8 11  2  0  0  0
  8 15  1  0  0  0
  9 12  1  0  0  0
  9 23  1  0  0  0
  9 24  1  0  0  0
 10 11  1  0  0  0
 10 25  1  0  0  0
 10 26  1  0  0  0
 11 17  1  0  0  0
 12 27  1  0  0  0
 12 28  1  0  0  0
 12 36  1  0  0  0
 13 16  1  0  0  0
 13 29  1  0  0  0
 14 16  2  0  0  0
 14 30  1  0  0  0
 15 18  2  0  0  0
 16 31  1  0  0  0
 17 19  2  0  0  0
 17 32  1  0  0  0
 18 19  1  0  0  0
 19 33  1  0  0  0
 36 37  1  0  0  0
 36 38  1  0  0  0
M  CHG  1  36   1
M  END
> <LID>
L024017

> <PC_CID>
430245

> <Names>
normorphine

> <CAS_Numbers>
466-97-7

$$$$
44215369
                    3D
 Structure written by MMmdl.
 69 74  0  0  1  0            999 V2000
    2.4124   -1.1970    1.2116 O   0  0  0  0  0  0
   -5.3338    0.3559    0.6550 O   0  0  0  0  0  0
    2.9262    2.2740    0.6562 N   0  0  0  0  0  0
    4.0990    0.3319    1.1856 N   0  0  0  0  0  0
   -4.2619   -0.9831   -0.8535 N   0  0  0  0  0  0
   -5.2805   -2.9535   -1.7573 N   0  0  0  0  0  0
    1.9603    1.1550    0.6921 C   0  0  0  0  0  0
    0.8719    1.3550    1.7877 C   0  0  0  0  0  0
    1.3099    0.9008   -0.6998 C   0  0  0  0  0  0
   -0.2832    0.3368    1.7117 C   0  0  0  0  0  0
    0.1377   -0.0997   -0.6659 C   0  0  0  0  0  0
    2.8323   -0.0496    1.0623 C   0  0  0  0  0  0
    4.2616    1.7543    0.9767 C   0  0  0  0  0  0
   -2.0989   -0.5546    0.3040 C   0  0  0  0  0  0
    2.7160    3.6007    0.3836 C   0  0  0  0  0  0
    5.2410   -0.5240    1.5023 C   0  0  0  0  0  0
   -3.0327   -0.1748   -0.8641 C   0  0  0  0  0  0
    3.8019    4.5168    0.4163 C   0  0  0  0  0  0
    1.4378    4.1282    0.0607 C   0  0  0  0  0  0
    5.6701   -1.4522    0.3721 C   0  0  0  0  0  0
    3.6212    5.8859    0.1412 C   0  0  0  0  0  0
    1.2538    5.4969   -0.2150 C   0  0  0  0  0  0
    6.2405   -2.7041    0.6867 C   0  0  0  0  0  0
    5.5278   -1.0787   -0.9843 C   0  0  0  0  0  0
    2.3454    6.3795   -0.1755 C   0  0  0  0  0  0
   -5.3227   -0.6327   -0.0807 C   0  0  0  0  0  0
   -4.2726   -2.1402   -1.6604 C   0  0  0  0  0  0
    6.6516   -3.5780   -0.3385 C   0  0  0  0  0  0
    5.9388   -1.9530   -2.0091 C   0  0  0  0  0  0
   -6.5165   -1.5408   -0.1672 C   0  0  0  0  0  0
    6.4996   -3.2034   -1.6869 C   0  0  0  0  0  0
   -6.4372   -2.6738   -1.0135 C   0  0  0  0  0  0
   -7.6939   -1.2861    0.5700 C   0  0  0  0  0  0
   -7.5438   -3.5425   -1.1119 C   0  0  0  0  0  0
   -8.7926   -2.1602    0.4639 C   0  0  0  0  0  0
   -8.7174   -3.2873   -0.3763 C   0  0  0  0  0  0
    1.3277    1.2996    2.7779 H   0  0  0  0  0  0
    0.4371    2.3495    1.7493 H   0  0  0  0  0  0
    2.0642    0.5376   -1.4003 H   0  0  0  0  0  0
    0.9465    1.8192   -1.1512 H   0  0  0  0  0  0
   -1.0471    0.6298    2.4332 H   0  0  0  0  0  0
    0.0452   -0.6599    2.0071 H   0  0  0  0  0  0
    0.4899   -1.1122   -0.4678 H   0  0  0  0  0  0
   -0.3130   -0.1293   -1.6570 H   0  0  0  0  0  0
    4.6528    2.2171    1.8842 H   0  0  0  0  0  0
    4.9589    1.9298    0.1560 H   0  0  0  0  0  0
   -1.8206   -1.6087    0.2550 H   0  0  0  0  0  0
   -2.6531   -0.4295    1.2354 H   0  0  0  0  0  0
    6.0953    0.0971    1.7742 H   0  0  0  0  0  0
    5.0001   -1.1149    2.3875 H   0  0  0  0  0  0
   -3.2850    0.8856   -0.8024 H   0  0  0  0  0  0
   -2.5210   -0.2806   -1.8214 H   0  0  0  0  0  0
    4.8048    4.1973    0.6537 H   0  0  0  0  0  0
    0.5580    3.5113    0.0125 H   0  0  0  0  0  0
    4.4659    6.5582    0.1739 H   0  0  0  0  0  0
    0.2697    5.8700   -0.4576 H   0  0  0  0  0  0
    6.3631   -3.0007    1.7182 H   0  0  0  0  0  0
    5.1046   -0.1217   -1.2509 H   0  0  0  0  0  0
    2.2048    7.4295   -0.3868 H   0  0  0  0  0  0
   -3.3466   -2.3133   -2.2115 H   0  0  0  0  0  0
    7.0846   -4.5358   -0.0899 H   0  0  0  0  0  0
    5.8254   -1.6630   -3.0433 H   0  0  0  0  0  0
    6.8153   -3.8733   -2.4732 H   0  0  0  0  0  0
   -7.7632   -0.4242    1.2180 H   0  0  0  0  0  0
   -7.4954   -4.4101   -1.7539 H   0  0  0  0  0  0
   -9.6934   -1.9659    1.0273 H   0  0  0  0  0  0
   -9.5607   -3.9572   -0.4571 H   0  0  0  0  0  0
   -0.8757    0.2867    0.3506 N   0  3  0  0  0  0
   -1.1702    1.2292    0.1374 H   0  0  0  0  0  0
  1 12  2  0  0  0
  2 26  2  0  0  0
  3  7  1  0  0  0
  3 13  1  0  0  0
  3 15  1  0  0  0
  4 12  1  0  0  0
  4 13  1  0  0  0
  4 16  1  0  0  0
  5 17  1  0  0  0
  5 26  1  0  0  0
  5 27  1  0  0  0
  6 27  2  0  0  0
  6 32  1  0  0  0
  7  8  1  0  0  0
  7  9  1  0  0  0
  7 12  1  0  0  0
  8 10  1  0  0  0
  8 37  1  0  0  0
  8 38  1  0  0  0
  9 11  1  0  0  0
  9 39  1  0  0  0
  9 40  1  0  0  0
 10 41  1  0  0  0
 10 42  1  0  0  0
 10 68  1  0  0  0
 11 43  1  0  0  0
 11 44  1  0  0  0
 11 68  1  0  0  0
 13 45  1  0  0  0
 13 46  1  0  0  0
 14 17  1  0  0  0
 14 47  1  0  0  0
 14 48  1  0  0  0
 14 68  1  0  0  0
 15 18  2  0  0  0
 15 19  1  0  0  0
 16 20  1  0  0  0
 16 49  1  0  0  0
 16 50  1  0  0  0
 17 51  1  0  0  0
 17 52  1  0  0  0
 18 21  1  0  0  0
 18 53  1  0  0  0
 19 22  2  0  0  0
 19 54  1  0  0  0
 20 23  2  0  0  0
 20 24  1  0  0  0
 21 25  2  0  0  0
 21 55  1  0  0  0
 22 25  1  0  0  0
 22 56  1  0  0  0
 23 28  1  0  0  0
 23 57  1  0  0  0
 24 29  2  0  0  0
 24 58  1  0  0  0
 25 59  1  0  0  0
 26 30  1  0  0  0
 27 60  1  0  0  0
 28 31  2  0  0  0
 28 61  1  0  0  0
 29 31  1  0  0  0
 29 62  1  0  0  0
 30 32  1  0  0  0
 30 33  2  0  0  0
 31 63  1  0  0  0
 32 34  2  0  0  0
 33 35  1  0  0  0
 33 64  1  0  0  0
 34 36  1  0  0  0
 34 65  1  0  0  0
 35 36  2  0  0  0
 35 66  1  0  0  0
 36 67  1  0  0  0
 68 69  1  0  0  0
M  CHG  1  68   1
M  END
> <LID>
L020683

> <PC_CID>
44215369

> <Names>


> <CAS_Numbers>


$$$$
44215368
                    3D
 Structure written by MMmdl.
 68 73  0  0  1  0            999 V2000
    2.1670   -2.4081    0.3900 O   0  0  0  0  0  0
   -4.4397    1.4848   -1.4078 O   0  0  0  0  0  0
    4.2657   -1.5335    0.5001 N   0  0  0  0  0  0
    3.8064    0.7430    0.3167 N   0  0  0  0  0  0
   -4.2140    0.4303    0.6006 N   0  0  0  0  0  0
   -6.1909   -0.5029    1.6739 N   0  0  0  0  0  0
    2.5203    0.0147    0.2729 C   0  0  0  0  0  0
    5.2914   -3.4554   -0.7317 C   0  0  0  0  0  0
    6.4081   -4.4610   -0.8824 C   0  0  0  0  0  0
    6.4925   -3.1279   -1.5871 C   0  0  0  0  0  0
    5.0616   -2.7522    0.5918 C   0  0  0  0  0  0
    1.7787    0.2195   -1.0811 C   0  0  0  0  0  0
    1.5989    0.3817    1.4734 C   0  0  0  0  0  0
    2.9440   -1.4533    0.3957 C   0  0  0  0  0  0
    4.8953   -0.2320    0.4570 C   0  0  0  0  0  0
    0.3372   -0.3269   -1.0913 C   0  0  0  0  0  0
    0.1664   -0.1745    1.3517 C   0  0  0  0  0  0
    4.0506    2.0898    0.2454 C   0  0  0  0  0  0
   -1.8863   -0.1743   -0.0399 C   0  0  0  0  0  0
   -2.7978    0.7897    0.7469 C   0  0  0  0  0  0
    5.3841    2.5774    0.3036 C   0  0  0  0  0  0
    3.0173    3.0547    0.1127 C   0  0  0  0  0  0
    5.6704    3.9543    0.2332 C   0  0  0  0  0  0
    3.3003    4.4324    0.0421 C   0  0  0  0  0  0
   -4.7336   -0.4735    1.6472 C   0  0  0  0  0  0
    4.6280    4.8859    0.1023 C   0  0  0  0  0  0
   -4.9246    0.8257   -0.4859 C   0  0  0  0  0  0
   -6.3759    0.4244   -0.5130 C   0  0  0  0  0  0
   -6.9544   -0.2173    0.6064 C   0  0  0  0  0  0
   -7.1822    0.7081   -1.6390 C   0  0  0  0  0  0
   -8.3208   -0.5630    0.6026 C   0  0  0  0  0  0
   -8.5462    0.3567   -1.6440 C   0  0  0  0  0  0
   -9.1160   -0.2766   -0.5233 C   0  0  0  0  0  0
    4.3734   -3.6950   -1.2655 H   0  0  0  0  0  0
    6.2128   -5.3409   -1.4922 H   0  0  0  0  0  0
    7.0670   -4.6207   -0.0311 H   0  0  0  0  0  0
    7.2057   -2.4008   -1.2036 H   0  0  0  0  0  0
    6.3517   -3.1182   -2.6661 H   0  0  0  0  0  0
    6.0256   -2.5177    1.0457 H   0  0  0  0  0  0
    4.5714   -3.4500    1.2722 H   0  0  0  0  0  0
    2.3418   -0.2536   -1.8876 H   0  0  0  0  0  0
    1.7356    1.2670   -1.3645 H   0  0  0  0  0  0
    1.5244    1.4561    1.6133 H   0  0  0  0  0  0
    2.0405    0.0200    2.4037 H   0  0  0  0  0  0
    5.5783   -0.1826   -0.3927 H   0  0  0  0  0  0
    5.4553   -0.0633    1.3783 H   0  0  0  0  0  0
   -0.1353   -0.0314   -2.0289 H   0  0  0  0  0  0
    0.3250   -1.4169   -1.0768 H   0  0  0  0  0  0
    0.1537   -1.2584    1.4669 H   0  0  0  0  0  0
   -0.4232    0.2205    2.1779 H   0  0  0  0  0  0
   -2.1923   -0.1541   -1.0869 H   0  0  0  0  0  0
   -2.0234   -1.2031    0.2970 H   0  0  0  0  0  0
   -2.5351    0.7908    1.8042 H   0  0  0  0  0  0
   -2.6351    1.8159    0.4117 H   0  0  0  0  0  0
    6.2265    1.9105    0.4036 H   0  0  0  0  0  0
    1.9787    2.7797    0.0602 H   0  0  0  0  0  0
    6.6944    4.2949    0.2801 H   0  0  0  0  0  0
    2.4937    5.1435   -0.0587 H   0  0  0  0  0  0
   -4.3601   -1.4835    1.4741 H   0  0  0  0  0  0
   -4.3867   -0.1615    2.6328 H   0  0  0  0  0  0
    4.8457    5.9425    0.0481 H   0  0  0  0  0  0
   -6.6246   -0.9967    2.4413 H   0  0  0  0  0  0
   -6.7640    1.2007   -2.5050 H   0  0  0  0  0  0
   -8.7640   -1.0522    1.4579 H   0  0  0  0  0  0
   -9.1567    0.5770   -2.5073 H   0  0  0  0  0  0
  -10.1625   -0.5435   -0.5275 H   0  0  0  0  0  0
   -0.4516    0.1986    0.0522 N   0  3  0  0  0  0
   -0.4144    1.2055   -0.0194 H   0  0  0  0  0  0
  1 14  2  0  0  0
  2 27  2  0  0  0
  3 11  1  0  0  0
  3 14  1  0  0  0
  3 15  1  0  0  0
  4  7  1  0  0  0
  4 15  1  0  0  0
  4 18  1  0  0  0
  5 20  1  0  0  0
  5 25  1  0  0  0
  5 27  1  0  0  0
  6 25  1  0  0  0
  6 29  1  0  0  0
  6 62  1  0  0  0
  7 12  1  0  0  0
  7 13  1  0  0  0
  7 14  1  0  0  0
  8  9  1  0  0  0
  8 10  1  0  0  0
  8 11  1  0  0  0
  8 34  1  0  0  0
  9 10  1  0  0  0
  9 35  1  0  0  0
  9 36  1  0  0  0
 10 37  1  0  0  0
 10 38  1  0  0  0
 11 39  1  0  0  0
 11 40  1  0  0  0
 12 16  1  0  0  0
 12 41  1  0  0  0
 12 42  1  0  0  0
 13 17  1  0  0  0
 13 43  1  0  0  0
 13 44  1  0  0  0
 15 45  1  0  0  0
 15 46  1  0  0  0
 16 47  1  0  0  0
 16 48  1  0  0  0
 16 67  1  0  0  0
 17 49  1  0  0  0
 17 50  1  0  0  0
 17 67  1  0  0  0
 18 21  2  0  0  0
 18 22  1  0  0  0
 19 20  1  0  0  0
 19 51  1  0  0  0
 19 52  1  0  0  0
 19 67  1  0  0  0
 20 53  1  0  0  0
 20 54  1  0  0  0
 21 23  1  0  0  0
 21 55  1  0  0  0
 22 24  2  0  0  0
 22 56  1  0  0  0
 23 26  2  0  0  0
 23 57  1  0  0  0
 24 26  1  0  0  0
 24 58  1  0  0  0
 25 59  1  0  0  0
 25 60  1  0  0  0
 26 61  1  0  0  0
 27 28  1  0  0  0
 28 29  1  0  0  0
 28 30  2  0  0  0
 29 31  2  0  0  0
 30 32  1  0  0  0
 30 63  1  0  0  0
 31 33  1  0  0  0
 31 64  1  0  0  0
 32 33  2  0  0  0
 32 65  1  0  0  0
 33 66  1  0  0  0
 67 68  1  0  0  0
M  CHG  1  67   1
M  END
> <LID>
L020682

> <PC_CID>
44215368

> <Names>


> <CAS_Numbers>


$$$$
44215365
                    3D
 Structure written by MMmdl.
 73 78  0  0  1  0            999 V2000
   -1.5444   -1.9504   -0.6977 O   0  0  0  0  0  0
    6.9762    1.0251    1.2077 O   0  0  0  0  0  0
    5.0042   -1.1326   -1.5718 O   0  0  0  0  0  0
   -2.9668    1.3037   -0.6637 N   0  0  0  0  0  0
   -3.5569   -0.9274   -1.0000 N   0  0  0  0  0  0
    4.9706    0.4030    0.1130 N   0  0  0  0  0  0
   -1.7525    0.4804   -0.4843 C   0  0  0  0  0  0
   -1.1957    0.5712    0.9671 C   0  0  0  0  0  0
   -0.6496    0.8284   -1.5276 C   0  0  0  0  0  0
    0.1895   -0.0816    1.1445 C   0  0  0  0  0  0
    0.7124    0.1660   -1.2397 C   0  0  0  0  0  0
   -2.2540   -0.9454   -0.7385 C   0  0  0  0  0  0
   -4.0933    0.4176   -0.9810 C   0  0  0  0  0  0
    2.5436   -0.0460    0.4159 C   0  0  0  0  0  0
   -3.1248    2.6614   -0.5624 C   0  0  0  0  0  0
   -4.4134   -2.0765   -1.2901 C   0  0  0  0  0  0
    3.6173    0.8900   -0.1747 C   0  0  0  0  0  0
   -5.5515   -2.2464   -0.2904 C   0  0  0  0  0  0
   -4.3995    3.2500   -0.7828 C   0  0  0  0  0  0
   -2.0570    3.5399   -0.2396 C   0  0  0  0  0  0
   -4.5968    4.6408   -0.6867 C   0  0  0  0  0  0
   -2.2511    4.9313   -0.1427 C   0  0  0  0  0  0
   -5.3314   -2.7131    1.0323 C   0  0  0  0  0  0
   -6.8619   -1.9130   -0.6983 C   0  0  0  0  0  0
    5.5987    0.8310    1.3580 C   0  0  0  0  0  0
   -3.5219    5.4855   -0.3661 C   0  0  0  0  0  0
    5.5602   -0.5615   -0.6324 C   0  0  0  0  0  0
   -6.4232   -2.8341    1.9189 C   0  0  0  0  0  0
   -3.9456   -3.0866    1.5301 C   0  0  0  0  0  0
   -7.9443   -2.0385    0.1919 C   0  0  0  0  0  0
    6.9811   -0.8795   -0.2664 C   0  0  0  0  0  0
   -7.7247   -2.4992    1.5020 C   0  0  0  0  0  0
    7.6494   -0.0298    0.6417 C   0  0  0  0  0  0
    7.6695   -1.9680   -0.8459 C   0  0  0  0  0  0
    9.0055   -0.2517    0.9508 C   0  0  0  0  0  0
    9.0209   -2.1985   -0.5208 C   0  0  0  0  0  0
    9.6895   -1.3390    0.3730 C   0  0  0  0  0  0
   -1.1216    1.5995    1.3084 H   0  0  0  0  0  0
   -1.8969    0.1075    1.6633 H   0  0  0  0  0  0
   -0.9797    0.5380   -2.5266 H   0  0  0  0  0  0
   -0.4854    1.8993   -1.6018 H   0  0  0  0  0  0
    0.5447    0.1345    2.1529 H   0  0  0  0  0  0
    0.1294   -1.1677    1.0711 H   0  0  0  0  0  0
    0.6712   -0.9099   -1.4105 H   0  0  0  0  0  0
    1.4377    0.5529   -1.9543 H   0  0  0  0  0  0
   -4.8724    0.4981   -0.2213 H   0  0  0  0  0  0
   -4.5186    0.6567   -1.9570 H   0  0  0  0  0  0
    2.7062   -0.1020    1.4933 H   0  0  0  0  0  0
    2.6546   -1.0638    0.0380 H   0  0  0  0  0  0
   -4.8234   -1.9438   -2.2919 H   0  0  0  0  0  0
   -3.8363   -3.0006   -1.3373 H   0  0  0  0  0  0
    3.5001    0.9922   -1.2540 H   0  0  0  0  0  0
    3.4901    1.8970    0.2242 H   0  0  0  0  0  0
   -5.2629    2.6528   -1.0320 H   0  0  0  0  0  0
   -1.0583    3.1853   -0.0553 H   0  0  0  0  0  0
   -5.5775    5.0592   -0.8598 H   0  0  0  0  0  0
   -1.4200    5.5752    0.1045 H   0  0  0  0  0  0
   -7.0439   -1.5530   -1.7003 H   0  0  0  0  0  0
    5.1573    1.7731    1.6838 H   0  0  0  0  0  0
    5.4078    0.0709    2.1181 H   0  0  0  0  0  0
   -3.6715    6.5527   -0.2919 H   0  0  0  0  0  0
   -6.2672   -3.1860    2.9282 H   0  0  0  0  0  0
   -4.0003   -3.6362    2.4702 H   0  0  0  0  0  0
   -3.4240   -3.7198    0.8129 H   0  0  0  0  0  0
   -3.3515   -2.1899    1.7038 H   0  0  0  0  0  0
   -8.9422   -1.7798   -0.1301 H   0  0  0  0  0  0
   -8.5537   -2.5955    2.1876 H   0  0  0  0  0  0
    7.1725   -2.6239   -1.5461 H   0  0  0  0  0  0
    9.5184    0.4059    1.6372 H   0  0  0  0  0  0
    9.5478   -3.0303   -0.9648 H   0  0  0  0  0  0
   10.7275   -1.5136    0.6151 H   0  0  0  0  0  0
    1.1641    0.4357    0.1506 N   0  3  0  0  0  0
    1.1836    1.4385    0.2698 H   0  0  0  0  0  0
  1 12  2  0  0  0
  2 25  1  0  0  0
  2 33  1  0  0  0
  3 27  2  0  0  0
  4  7  1  0  0  0
  4 13  1  0  0  0
  4 15  1  0  0  0
  5 12  1  0  0  0
  5 13  1  0  0  0
  5 16  1  0  0  0
  6 17  1  0  0  0
  6 25  1  0  0  0
  6 27  1  0  0  0
  7  8  1  0  0  0
  7  9  1  0  0  0
  7 12  1  0  0  0
  8 10  1  0  0  0
  8 38  1  0  0  0
  8 39  1  0  0  0
  9 11  1  0  0  0
  9 40  1  0  0  0
  9 41  1  0  0  0
 10 42  1  0  0  0
 10 43  1  0  0  0
 10 72  1  0  0  0
 11 44  1  0  0  0
 11 45  1  0  0  0
 11 72  1  0  0  0
 13 46  1  0  0  0
 13 47  1  0  0  0
 14 17  1  0  0  0
 14 48  1  0  0  0
 14 49  1  0  0  0
 14 72  1  0  0  0
 15 19  2  0  0  0
 15 20  1  0  0  0
 16 18  1  0  0  0
 16 50  1  0  0  0
 16 51  1  0  0  0
 17 52  1  0  0  0
 17 53  1  0  0  0
 18 23  1  0  0  0
 18 24  2  0  0  0
 19 21  1  0  0  0
 19 54  1  0  0  0
 20 22  2  0  0  0
 20 55  1  0  0  0
 21 26  2  0  0  0
 21 56  1  0  0  0
 22 26  1  0  0  0
 22 57  1  0  0  0
 23 28  2  0  0  0
 23 29  1  0  0  0
 24 30  1  0  0  0
 24 58  1  0  0  0
 25 59  1  0  0  0
 25 60  1  0  0  0
 26 61  1  0  0  0
 27 31  1  0  0  0
 28 32  1  0  0  0
 28 62  1  0  0  0
 29 63  1  0  0  0
 29 64  1  0  0  0
 29 65  1  0  0  0
 30 32  2  0  0  0
 30 66  1  0  0  0
 31 33  1  0  0  0
 31 34  2  0  0  0
 32 67  1  0  0  0
 33 35  2  0  0  0
 34 36  1  0  0  0
 34 68  1  0  0  0
 35 37  1  0  0  0
 35 69  1  0  0  0
 36 37  2  0  0  0
 36 70  1  0  0  0
 37 71  1  0  0  0
 72 73  1  0  0  0
M  CHG  1  72   1
M  END
> <LID>
L020679

> <PC_CID>
44215365

> <Names>


> <CAS_Numbers>


$$$$
44215364
                    3D
 Structure written by MMmdl.
 70 75  0  0  1  0            999 V2000
   -5.3309    2.8901    2.8857 F   0  0  0  0  0  0
   -1.8831    1.3826   -1.2984 O   0  0  0  0  0  0
    6.7093    0.4975   -1.5352 O   0  0  0  0  0  0
    5.0624   -0.5942    1.9819 O   0  0  0  0  0  0
   -3.0100   -1.8628   -0.3939 N   0  0  0  0  0  0
   -3.8039    0.1629   -1.2266 N   0  0  0  0  0  0
    4.8395   -0.1767   -0.2484 N   0  0  0  0  0  0
   -1.8670   -0.9291   -0.4843 C   0  0  0  0  0  0
   -1.2604   -0.6124    0.9145 C   0  0  0  0  0  0
   -0.7700   -1.4386   -1.4651 C   0  0  0  0  0  0
    0.0658    0.1710    0.8549 C   0  0  0  0  0  0
    0.5356   -0.6198   -1.4201 C   0  0  0  0  0  0
   -2.4994    0.3457   -1.0530 C   0  0  0  0  0  0
   -4.2178   -1.1767   -0.8696 C   0  0  0  0  0  0
    2.3905    0.1429    0.0387 C   0  0  0  0  0  0
   -3.0441   -3.1616    0.0426 C   0  0  0  0  0  0
   -4.7651    1.1478   -1.7199 C   0  0  0  0  0  0
    3.5250   -0.8145   -0.3779 C   0  0  0  0  0  0
   -4.2667   -3.8860    0.0325 C   0  0  0  0  0  0
   -1.8943   -3.8455    0.5184 C   0  0  0  0  0  0
   -5.0929    2.2645   -0.7354 C   0  0  0  0  0  0
   -4.3373   -5.2212    0.4740 C   0  0  0  0  0  0
   -1.9616   -5.1808    0.9606 C   0  0  0  0  0  0
   -5.0588    2.0522    0.6622 C   0  0  0  0  0  0
   -5.4577    3.5345   -1.2310 C   0  0  0  0  0  0
    5.3245    0.6152   -1.3733 C   0  0  0  0  0  0
   -3.1836   -5.8723    0.9396 C   0  0  0  0  0  0
    5.5103   -0.1416    0.9272 C   0  0  0  0  0  0
    6.8841    0.4612    0.8667 C   0  0  0  0  0  0
   -5.3712    3.1008    1.5488 C   0  0  0  0  0  0
   -5.7713    4.5829   -0.3442 C   0  0  0  0  0  0
    7.4451    0.7341   -0.3999 C   0  0  0  0  0  0
   -5.7264    4.3668    1.0462 C   0  0  0  0  0  0
    7.6367    0.7085    2.0359 C   0  0  0  0  0  0
    8.7602    1.2286   -0.4991 C   0  0  0  0  0  0
    8.9454    1.2205    1.9343 C   0  0  0  0  0  0
    9.5082    1.4762    0.6684 C   0  0  0  0  0  0
   -1.9786   -0.0464    1.5107 H   0  0  0  0  0  0
   -1.0849   -1.5142    1.4936 H   0  0  0  0  0  0
   -1.1550   -1.4342   -2.4864 H   0  0  0  0  0  0
   -0.5131   -2.4776   -1.2810 H   0  0  0  0  0  0
   -0.0933    1.1968    0.5216 H   0  0  0  0  0  0
    0.4694    0.2404    1.8659 H   0  0  0  0  0  0
    0.3933    0.3726   -1.8479 H   0  0  0  0  0  0
    1.2697   -1.1155   -2.0539 H   0  0  0  0  0  0
   -4.6329   -1.6790   -1.7449 H   0  0  0  0  0  0
   -4.9779   -1.1323   -0.0879 H   0  0  0  0  0  0
    2.3999    1.0479   -0.5710 H   0  0  0  0  0  0
    2.5782    0.4645    1.0643 H   0  0  0  0  0  0
   -4.3789    1.5802   -2.6445 H   0  0  0  0  0  0
   -5.6958    0.6447   -1.9848 H   0  0  0  0  0  0
    3.4902   -1.7201    0.2308 H   0  0  0  0  0  0
    3.3939   -1.1543   -1.4047 H   0  0  0  0  0  0
   -5.1859   -3.4398   -0.3142 H   0  0  0  0  0  0
   -0.9263   -3.3786    0.5625 H   0  0  0  0  0  0
   -5.2811   -5.7461    0.4544 H   0  0  0  0  0  0
   -1.0703   -5.6756    1.3174 H   0  0  0  0  0  0
   -4.7938    1.0871    1.0677 H   0  0  0  0  0  0
   -5.4963    3.7106   -2.2962 H   0  0  0  0  0  0
    4.8450    0.2758   -2.2917 H   0  0  0  0  0  0
    5.0547    1.6589   -1.2004 H   0  0  0  0  0  0
   -3.2358   -6.8966    1.2787 H   0  0  0  0  0  0
   -6.0466    5.5531   -0.7310 H   0  0  0  0  0  0
   -5.9665    5.1704    1.7268 H   0  0  0  0  0  0
    7.2223    0.5001    3.0118 H   0  0  0  0  0  0
    9.1918    1.4264   -1.4692 H   0  0  0  0  0  0
    9.5215    1.4086    2.8284 H   0  0  0  0  0  0
   10.5142    1.8619    0.5930 H   0  0  0  0  0  0
    1.0522   -0.4975   -0.0316 N   0  3  0  0  0  0
    1.1660   -1.4340    0.3296 H   0  0  0  0  0  0
  1 30  1  0  0  0
  2 13  2  0  0  0
  3 26  1  0  0  0
  3 32  1  0  0  0
  4 28  2  0  0  0
  5  8  1  0  0  0
  5 14  1  0  0  0
  5 16  1  0  0  0
  6 13  1  0  0  0
  6 14  1  0  0  0
  6 17  1  0  0  0
  7 18  1  0  0  0
  7 26  1  0  0  0
  7 28  1  0  0  0
  8  9  1  0  0  0
  8 10  1  0  0  0
  8 13  1  0  0  0
  9 11  1  0  0  0
  9 38  1  0  0  0
  9 39  1  0  0  0
 10 12  1  0  0  0
 10 40  1  0  0  0
 10 41  1  0  0  0
 11 42  1  0  0  0
 11 43  1  0  0  0
 11 69  1  0  0  0
 12 44  1  0  0  0
 12 45  1  0  0  0
 12 69  1  0  0  0
 14 46  1  0  0  0
 14 47  1  0  0  0
 15 18  1  0  0  0
 15 48  1  0  0  0
 15 49  1  0  0  0
 15 69  1  0  0  0
 16 19  2  0  0  0
 16 20  1  0  0  0
 17 21  1  0  0  0
 17 50  1  0  0  0
 17 51  1  0  0  0
 18 52  1  0  0  0
 18 53  1  0  0  0
 19 22  1  0  0  0
 19 54  1  0  0  0
 20 23  2  0  0  0
 20 55  1  0  0  0
 21 24  2  0  0  0
 21 25  1  0  0  0
 22 27  2  0  0  0
 22 56  1  0  0  0
 23 27  1  0  0  0
 23 57  1  0  0  0
 24 30  1  0  0  0
 24 58  1  0  0  0
 25 31  2  0  0  0
 25 59  1  0  0  0
 26 60  1  0  0  0
 26 61  1  0  0  0
 27 62  1  0  0  0
 28 29  1  0  0  0
 29 32  1  0  0  0
 29 34  2  0  0  0
 30 33  2  0  0  0
 31 33  1  0  0  0
 31 63  1  0  0  0
 32 35  2  0  0  0
 33 64  1  0  0  0
 34 36  1  0  0  0
 34 65  1  0  0  0
 35 37  1  0  0  0
 35 66  1  0  0  0
 36 37  2  0  0  0
 36 67  1  0  0  0
 37 68  1  0  0  0
 69 70  1  0  0  0
M  CHG  1  69   1
M  END
> <LID>
L020678

> <PC_CID>
44215364

> <Names>


> <CAS_Numbers>


$$$$
44215367
                    3D
 Structure written by MMmdl.
 70 75  0  0  1  0            999 V2000
    6.6490    0.5124    0.9717 S   0  0  0  0  0  0
   -1.9169   -1.1717    1.6048 O   0  0  0  0  0  0
    3.9971   -1.8478   -1.4231 O   0  0  0  0  0  0
   -3.2648    1.8675    0.3531 N   0  0  0  0  0  0
   -3.9296   -0.1492    1.3115 N   0  0  0  0  0  0
    4.5258    0.2280   -0.6741 N   0  0  0  0  0  0
   -2.0521    1.0557    0.5916 C   0  0  0  0  0  0
   -1.0723    1.7440    1.5873 C   0  0  0  0  0  0
   -1.3283    0.6844   -0.7365 C   0  0  0  0  0  0
    0.3015    1.0516    1.6887 C   0  0  0  0  0  0
    0.0552    0.0365   -0.5313 C   0  0  0  0  0  0
   -2.6053   -0.2220    1.2317 C   0  0  0  0  0  0
   -4.4359    1.1121    0.8155 C   0  0  0  0  0  0
    2.3112    0.3637    0.4394 C   0  0  0  0  0  0
   -3.3848    3.1173   -0.1964 C   0  0  0  0  0  0
   -4.8298   -1.1751    1.8351 C   0  0  0  0  0  0
    3.1472    0.7189   -0.8062 C   0  0  0  0  0  0
   -4.6647    3.7221   -0.3215 C   0  0  0  0  0  0
   -2.2709    3.8650   -0.6616 C   0  0  0  0  0  0
   -4.9908   -2.3959    0.9369 C   0  0  0  0  0  0
   -4.8237    5.0043   -0.8814 C   0  0  0  0  0  0
   -2.4266    5.1475   -1.2221 C   0  0  0  0  0  0
   -5.2438   -3.6545    1.5229 C   0  0  0  0  0  0
   -4.9121   -2.2924   -0.4712 C   0  0  0  0  0  0
    5.4906    1.2347   -0.2123 C   0  0  0  0  0  0
   -3.7038    5.7206   -1.3335 C   0  0  0  0  0  0
    4.8392   -1.0543   -0.9978 C   0  0  0  0  0  0
    6.2717   -1.5129   -0.8481 C   0  0  0  0  0  0
   -5.4032   -4.7977    0.7158 C   0  0  0  0  0  0
   -5.0713   -3.4357   -1.2779 C   0  0  0  0  0  0
    7.1616   -0.9008    0.0680 C   0  0  0  0  0  0
   -5.3156   -4.6890   -0.6851 C   0  0  0  0  0  0
    6.7274   -2.6307   -1.5860 C   0  0  0  0  0  0
    8.4695   -1.3935    0.2444 C   0  0  0  0  0  0
    8.0374   -3.1201   -1.4170 C   0  0  0  0  0  0
    8.9083   -2.5039   -0.4997 C   0  0  0  0  0  0
   -1.5217    1.7854    2.5811 H   0  0  0  0  0  0
   -0.8983    2.7846    1.3295 H   0  0  0  0  0  0
   -1.1955    1.5483   -1.3811 H   0  0  0  0  0  0
   -1.9524    0.0065   -1.3216 H   0  0  0  0  0  0
    0.9527    1.6686    2.3093 H   0  0  0  0  0  0
    0.2252    0.0888    2.1943 H   0  0  0  0  0  0
   -0.0378   -0.9667   -0.1148 H   0  0  0  0  0  0
    0.5218   -0.0886   -1.5075 H   0  0  0  0  0  0
   -4.9507    1.6430    1.6180 H   0  0  0  0  0  0
   -5.1359    0.9333   -0.0022 H   0  0  0  0  0  0
    2.8020    0.8074    1.3071 H   0  0  0  0  0  0
    2.3007   -0.7136    0.6140 H   0  0  0  0  0  0
   -4.4687   -1.4895    2.8157 H   0  0  0  0  0  0
   -5.8172   -0.7417    1.9989 H   0  0  0  0  0  0
    2.6984    0.3123   -1.7131 H   0  0  0  0  0  0
    3.1448    1.7998   -0.9551 H   0  0  0  0  0  0
   -5.5617    3.2213    0.0083 H   0  0  0  0  0  0
   -1.2646    3.4890   -0.6076 H   0  0  0  0  0  0
   -5.8095    5.4381   -0.9633 H   0  0  0  0  0  0
   -1.5609    5.6931   -1.5677 H   0  0  0  0  0  0
    6.0451    1.6225   -1.0677 H   0  0  0  0  0  0
    4.9996    2.0809    0.2697 H   0  0  0  0  0  0
   -5.3144   -3.7487    2.5967 H   0  0  0  0  0  0
   -4.7305   -1.3390   -0.9445 H   0  0  0  0  0  0
   -3.8239    6.7043   -1.7632 H   0  0  0  0  0  0
   -5.5936   -5.7581    1.1717 H   0  0  0  0  0  0
   -5.0078   -3.3507   -2.3528 H   0  0  0  0  0  0
   -5.4382   -5.5655   -1.3041 H   0  0  0  0  0  0
    6.0720   -3.1288   -2.2862 H   0  0  0  0  0  0
    9.1406   -0.9160    0.9434 H   0  0  0  0  0  0
    8.3718   -3.9740   -1.9878 H   0  0  0  0  0  0
    9.9119   -2.8812   -0.3685 H   0  0  0  0  0  0
    0.9171    0.8674    0.3498 N   0  3  0  0  0  0
    0.9714    1.7868   -0.0649 H   0  0  0  0  0  0
  1 25  1  0  0  0
  1 31  1  0  0  0
  2 12  2  0  0  0
  3 27  2  0  0  0
  4  7  1  0  0  0
  4 13  1  0  0  0
  4 15  1  0  0  0
  5 12  1  0  0  0
  5 13  1  0  0  0
  5 16  1  0  0  0
  6 17  1  0  0  0
  6 25  1  0  0  0
  6 27  1  0  0  0
  7  8  1  0  0  0
  7  9  1  0  0  0
  7 12  1  0  0  0
  8 10  1  0  0  0
  8 37  1  0  0  0
  8 38  1  0  0  0
  9 11  1  0  0  0
  9 39  1  0  0  0
  9 40  1  0  0  0
 10 41  1  0  0  0
 10 42  1  0  0  0
 10 69  1  0  0  0
 11 43  1  0  0  0
 11 44  1  0  0  0
 11 69  1  0  0  0
 13 45  1  0  0  0
 13 46  1  0  0  0
 14 17  1  0  0  0
 14 47  1  0  0  0
 14 48  1  0  0  0
 14 69  1  0  0  0
 15 18  2  0  0  0
 15 19  1  0  0  0
 16 20  1  0  0  0
 16 49  1  0  0  0
 16 50  1  0  0  0
 17 51  1  0  0  0
 17 52  1  0  0  0
 18 21  1  0  0  0
 18 53  1  0  0  0
 19 22  2  0  0  0
 19 54  1  0  0  0
 20 23  2  0  0  0
 20 24  1  0  0  0
 21 26  2  0  0  0
 21 55  1  0  0  0
 22 26  1  0  0  0
 22 56  1  0  0  0
 23 29  1  0  0  0
 23 59  1  0  0  0
 24 30  2  0  0  0
 24 60  1  0  0  0
 25 57  1  0  0  0
 25 58  1  0  0  0
 26 61  1  0  0  0
 27 28  1  0  0  0
 28 31  1  0  0  0
 28 33  2  0  0  0
 29 32  2  0  0  0
 29 62  1  0  0  0
 30 32  1  0  0  0
 30 63  1  0  0  0
 31 34  2  0  0  0
 32 64  1  0  0  0
 33 35  1  0  0  0
 33 65  1  0  0  0
 34 36  1  0  0  0
 34 66  1  0  0  0
 35 36  2  0  0  0
 35 67  1  0  0  0
 36 68  1  0  0  0
 69 70  1  0  0  0
M  CHG  1  69   1
M  END
> <LID>
L020681

> <PC_CID>
44215367

> <Names>


> <CAS_Numbers>


$$$$
9904608
                    3D
 Structure written by MMmdl.
 45 47  0  0  1  0            999 V2000
    1.0823    1.0515    2.2588 S   0  0  0  0  0  0
   -4.9610    0.4447   -1.1972 O   0  0  0  0  0  0
    4.6093   -1.0987   -1.0443 N   0  0  0  0  0  0
    3.1539   -2.6736   -0.1924 N   0  3  0  0  0  0
   -0.0140    0.2530   -0.8533 C   0  0  2  0  0  0
    1.0510   -0.6030   -0.0941 C   0  0  2  0  0  0
    0.9359   -0.5814    1.4433 C   0  0  2  0  0  0
    0.1351    1.8070   -0.7447 C   0  0  0  0  0  0
   -1.4108   -0.0879   -0.2845 C   0  0  0  0  0  0
   -0.4055   -1.2217    1.8196 C   0  0  0  0  0  0
   -1.5807   -0.7583    0.9638 C   0  0  0  0  0  0
    0.0576   -0.1505   -2.3508 C   0  0  0  0  0  0
    1.5340    2.4516   -0.8679 C   0  0  0  0  0  0
    2.1549    2.9265    0.4655 C   0  0  0  0  0  0
    2.5308    1.8591    1.5135 C   0  0  0  0  0  0
   -2.5704    0.3185   -0.9912 C   0  0  0  0  0  0
   -2.8780   -1.0281    1.4486 C   0  0  0  0  0  0
   -3.8598    0.0470   -0.4967 C   0  0  0  0  0  0
   -4.0141   -0.6314    0.7232 C   0  0  0  0  0  0
    3.3882   -1.4182   -0.6003 C   0  0  0  0  0  0
    0.8081   -1.6296   -0.3718 H   0  0  0  0  0  0
    1.7386   -1.1829    1.8713 H   0  0  0  0  0  0
   -0.3227    2.1628    0.1781 H   0  0  0  0  0  0
   -0.4962    2.2547   -1.5135 H   0  0  0  0  0  0
   -0.6246   -1.0503    2.8746 H   0  0  0  0  0  0
   -0.3315   -2.3033    1.7008 H   0  0  0  0  0  0
   -0.1533   -1.2117   -2.4881 H   0  0  0  0  0  0
   -0.6458    0.4000   -2.9738 H   0  0  0  0  0  0
    1.0433    0.0422   -2.7740 H   0  0  0  0  0  0
    1.4082    3.3521   -1.4704 H   0  0  0  0  0  0
    2.2252    1.8535   -1.4558 H   0  0  0  0  0  0
    3.0584    3.4890    0.2274 H   0  0  0  0  0  0
    1.4831    3.6499    0.9295 H   0  0  0  0  0  0
    3.2599    1.1400    1.1492 H   0  0  0  0  0  0
    3.0355    2.3728    2.3321 H   0  0  0  0  0  0
   -2.4834    0.8577   -1.9217 H   0  0  0  0  0  0
   -3.0069   -1.5434    2.3893 H   0  0  0  0  0  0
   -5.0015   -0.8424    1.1072 H   0  0  0  0  0  0
   -4.7506    0.8947   -2.0008 H   0  0  0  0  0  0
    5.3415   -1.7935   -1.0720 H   0  0  0  0  0  0
    4.8082   -0.1612   -1.3625 H   0  0  0  0  0  0
    3.8866   -3.3678   -0.2197 H   0  0  0  0  0  0
    2.2358   -2.9367    0.1346 H   0  0  0  0  0  0
    2.4371   -0.4676   -0.5756 N   0  0  0  0  0  0
    2.7090    0.4711   -0.8285 H   0  0  0  0  0  0
  1  7  1  0  0  0
  1 15  1  0  0  0
  2 18  1  0  0  0
  2 39  1  0  0  0
  3 20  1  0  0  0
  3 40  1  0  0  0
  3 41  1  0  0  0
  4 20  2  0  0  0
  4 42  1  0  0  0
  4 43  1  0  0  0
  5  6  1  0  0  0
  5  8  1  0  0  0
  5  9  1  0  0  0
  5 12  1  0  0  0
  6  7  1  0  0  0
  6 21  1  0  0  0
  6 44  1  0  0  0
  7 10  1  0  0  0
  7 22  1  0  0  0
  8 13  1  0  0  0
  8 23  1  0  0  0
  8 24  1  0  0  0
  9 11  2  0  0  0
  9 16  1  0  0  0
 10 11  1  0  0  0
 10 25  1  0  0  0
 10 26  1  0  0  0
 11 17  1  0  0  0
 12 27  1  0  0  0
 12 28  1  0  0  0
 12 29  1  0  0  0
 13 14  1  0  0  0
 13 30  1  0  0  0
 13 31  1  0  0  0
 14 15  1  0  0  0
 14 32  1  0  0  0
 14 33  1  0  0  0
 15 34  1  0  0  0
 15 35  1  0  0  0
 16 18  2  0  0  0
 16 36  1  0  0  0
 17 19  2  0  0  0
 17 37  1  0  0  0
 18 19  1  0  0  0
 19 38  1  0  0  0
 20 44  1  0  0  0
 44 45  1  0  0  0
M  CHG  1   4   1
M  END
> <LID>
L016172

> <PC_CID>
9904608

> <Names>


> <CAS_Numbers>


$$$$
44215361
                    3D
 Structure written by MMmdl.
 74 79  0  0  1  0            999 V2000
   -1.7417   -1.8245   -1.1905 O   0  0  0  0  0  0
   -5.5580    5.3665    0.3302 O   0  0  0  0  0  0
    6.2970   -1.8090   -1.3797 O   0  0  0  0  0  0
    5.3143    0.5192    1.7540 O   0  0  0  0  0  0
   -2.9113    1.4328   -0.3876 N   0  0  0  0  0  0
   -3.6857   -0.6424   -1.1106 N   0  0  0  0  0  0
    4.9672   -0.1036   -0.4119 N   0  0  0  0  0  0
   -1.7517    0.5192   -0.4736 C   0  0  0  0  0  0
   -1.0971    0.2743    0.9179 C   0  0  0  0  0  0
   -0.6954    1.0086   -1.5080 C   0  0  0  0  0  0
    0.2431   -0.4842    0.8504 C   0  0  0  0  0  0
    0.6282    0.2189   -1.4688 C   0  0  0  0  0  0
   -2.3730   -0.7912   -0.9690 C   0  0  0  0  0  0
   -4.1174    0.7027   -0.7981 C   0  0  0  0  0  0
    2.5412   -0.4446   -0.0371 C   0  0  0  0  0  0
   -2.9604    2.7481   -0.0051 C   0  0  0  0  0  0
   -4.6389   -1.6657   -1.5359 C   0  0  0  0  0  0
    3.6428    0.5152   -0.5272 C   0  0  0  0  0  0
   -4.1970    3.4476   -0.0082 C   0  0  0  0  0  0
   -1.8132    3.4733    0.4061 C   0  0  0  0  0  0
   -4.9122   -2.7481   -0.4982 C   0  0  0  0  0  0
   -4.3020    4.7999    0.3761 C   0  0  0  0  0  0
   -1.8994    4.8228    0.7928 C   0  0  0  0  0  0
   -4.8723   -2.4695    0.8875 C   0  0  0  0  0  0
   -5.2319   -4.0529   -0.9305 C   0  0  0  0  0  0
   -3.1355    5.4887    0.7801 C   0  0  0  0  0  0
    5.5719   -0.6380   -1.6267 C   0  0  0  0  0  0
    5.6864   -0.0639    0.7346 C   0  0  0  0  0  0
    6.9766   -0.8307    0.7120 C   0  0  0  0  0  0
   -5.1356   -3.4870    1.8250 C   0  0  0  0  0  0
   -5.4955   -5.0701    0.0074 C   0  0  0  0  0  0
    7.2143   -1.7152   -0.3620 C   0  0  0  0  0  0
   -5.4460   -4.7879    1.3856 C   0  0  0  0  0  0
    7.9188   -0.7277    1.7588 C   0  0  0  0  0  0
   -5.6929    6.7277    0.7121 C   0  0  0  0  0  0
    8.3763   -2.5110   -0.3791 C   0  0  0  0  0  0
    9.0895   -1.5111    1.7300 C   0  0  0  0  0  0
    9.3161   -2.4048    0.6648 C   0  0  0  0  0  0
   -1.7850   -0.2801    1.5589 H   0  0  0  0  0  0
   -0.9237    1.2032    1.4532 H   0  0  0  0  0  0
   -1.1104    0.9532   -2.5159 H   0  0  0  0  0  0
   -0.4554    2.0594   -1.3753 H   0  0  0  0  0  0
    0.6780   -0.5028    1.8505 H   0  0  0  0  0  0
    0.0960   -1.5261    0.5650 H   0  0  0  0  0  0
    0.4946   -0.7934   -1.8504 H   0  0  0  0  0  0
    1.3324    0.7020   -2.1449 H   0  0  0  0  0  0
   -4.8538    0.6766    0.0067 H   0  0  0  0  0  0
   -4.5680    1.1587   -1.6812 H   0  0  0  0  0  0
    2.7668   -0.7182    0.9948 H   0  0  0  0  0  0
    2.5529   -1.3743   -0.6085 H   0  0  0  0  0  0
   -5.5881   -1.1933   -1.7915 H   0  0  0  0  0  0
   -4.2709   -2.1262   -2.4543 H   0  0  0  0  0  0
    3.4737    0.8081   -1.5632 H   0  0  0  0  0  0
    3.6103    1.4448    0.0441 H   0  0  0  0  0  0
   -5.1125    2.9622   -0.3094 H   0  0  0  0  0  0
   -0.8341    3.0292    0.4407 H   0  0  0  0  0  0
   -1.0093    5.3509    1.1017 H   0  0  0  0  0  0
   -4.6412   -1.4766    1.2437 H   0  0  0  0  0  0
   -5.2741   -4.2798   -1.9858 H   0  0  0  0  0  0
   -3.1621    6.5242    1.0836 H   0  0  0  0  0  0
    4.7850   -0.8759   -2.3434 H   0  0  0  0  0  0
    6.2229    0.1277   -2.0530 H   0  0  0  0  0  0
   -5.1014   -3.2685    2.8822 H   0  0  0  0  0  0
   -5.7365   -6.0671   -0.3311 H   0  0  0  0  0  0
   -5.6485   -5.5678    2.1049 H   0  0  0  0  0  0
    7.7475   -0.0587    2.5899 H   0  0  0  0  0  0
   -6.7378    7.0245    0.6221 H   0  0  0  0  0  0
   -5.3950    6.8823    1.7500 H   0  0  0  0  0  0
   -5.1075    7.3833    0.0660 H   0  0  0  0  0  0
    8.5514   -3.1952   -1.1963 H   0  0  0  0  0  0
    9.8101   -1.4332    2.5309 H   0  0  0  0  0  0
   10.2109   -3.0096    0.6487 H   0  0  0  0  0  0
    1.1884    0.1658   -0.0929 N   0  3  0  0  0  0
    1.2930    1.1187    0.2254 H   0  0  0  0  0  0
  1 13  2  0  0  0
  2 22  1  0  0  0
  2 35  1  0  0  0
  3 27  1  0  0  0
  3 32  1  0  0  0
  4 28  2  0  0  0
  5  8  1  0  0  0
  5 14  1  0  0  0
  5 16  1  0  0  0
  6 13  1  0  0  0
  6 14  1  0  0  0
  6 17  1  0  0  0
  7 18  1  0  0  0
  7 27  1  0  0  0
  7 28  1  0  0  0
  8  9  1  0  0  0
  8 10  1  0  0  0
  8 13  1  0  0  0
  9 11  1  0  0  0
  9 39  1  0  0  0
  9 40  1  0  0  0
 10 12  1  0  0  0
 10 41  1  0  0  0
 10 42  1  0  0  0
 11 43  1  0  0  0
 11 44  1  0  0  0
 11 73  1  0  0  0
 12 45  1  0  0  0
 12 46  1  0  0  0
 12 73  1  0  0  0
 14 47  1  0  0  0
 14 48  1  0  0  0
 15 18  1  0  0  0
 15 49  1  0  0  0
 15 50  1  0  0  0
 15 73  1  0  0  0
 16 19  2  0  0  0
 16 20  1  0  0  0
 17 21  1  0  0  0
 17 51  1  0  0  0
 17 52  1  0  0  0
 18 53  1  0  0  0
 18 54  1  0  0  0
 19 22  1  0  0  0
 19 55  1  0  0  0
 20 23  2  0  0  0
 20 56  1  0  0  0
 21 24  2  0  0  0
 21 25  1  0  0  0
 22 26  2  0  0  0
 23 26  1  0  0  0
 23 57  1  0  0  0
 24 30  1  0  0  0
 24 58  1  0  0  0
 25 31  2  0  0  0
 25 59  1  0  0  0
 26 60  1  0  0  0
 27 61  1  0  0  0
 27 62  1  0  0  0
 28 29  1  0  0  0
 29 32  1  0  0  0
 29 34  2  0  0  0
 30 33  2  0  0  0
 30 63  1  0  0  0
 31 33  1  0  0  0
 31 64  1  0  0  0
 32 36  2  0  0  0
 33 65  1  0  0  0
 34 37  1  0  0  0
 34 66  1  0  0  0
 35 67  1  0  0  0
 35 68  1  0  0  0
 35 69  1  0  0  0
 36 38  1  0  0  0
 36 70  1  0  0  0
 37 38  2  0  0  0
 37 71  1  0  0  0
 38 72  1  0  0  0
 73 74  1  0  0  0
M  CHG  1  73   1
M  END
> <LID>
L020675

> <PC_CID>
44215361

> <Names>


> <CAS_Numbers>


$$$$
44215360
                    3D
 Structure written by MMmdl.
 71 76  0  0  1  0            999 V2000
    2.8484   -2.4403    0.1882 O   0  0  0  0  0  0
   -5.3993   -0.7755    2.1836 O   0  0  0  0  0  0
   -4.0257    1.3383   -0.9654 O   0  0  0  0  0  0
   -8.9472    0.3802   -1.9689 O   0  0  0  0  0  0
    4.9174   -1.4957    0.2775 N   0  0  0  0  0  0
    4.3694    0.7684    0.3031 N   0  0  0  0  0  0
   -3.6104    0.1145    0.9128 N   0  0  0  0  0  0
    3.1094   -0.0040    0.2560 C   0  0  0  0  0  0
    5.9518   -3.2698   -1.1528 C   0  0  0  0  0  0
    7.0952   -4.2154   -1.4350 C   0  0  0  0  0  0
    7.0989   -2.8273   -2.0302 C   0  0  0  0  0  0
    5.7597   -2.6856    0.2331 C   0  0  0  0  0  0
    2.2979    0.2802   -1.0424 C   0  0  0  0  0  0
    2.2330    0.2282    1.5221 C   0  0  0  0  0  0
    3.5903   -1.4593    0.2385 C   0  0  0  0  0  0
    5.4977   -0.1713    0.3143 C   0  0  0  0  0  0
    0.8780   -0.3201   -1.0343 C   0  0  0  0  0  0
    0.8171   -0.3725    1.4182 C   0  0  0  0  0  0
    4.5618    2.1251    0.3325 C   0  0  0  0  0  0
   -1.2974   -0.3416    0.1227 C   0  0  0  0  0  0
   -2.2040    0.5141    1.0301 C   0  0  0  0  0  0
    5.8785    2.6584    0.3720 C   0  0  0  0  0  0
    3.4898    3.0562    0.3257 C   0  0  0  0  0  0
    6.1120    4.0466    0.4031 C   0  0  0  0  0  0
    3.7201    4.4451    0.3567 C   0  0  0  0  0  0
    5.0321    4.9441    0.3955 C   0  0  0  0  0  0
   -4.0804   -0.9752    1.7612 C   0  0  0  0  0  0
   -4.4127    0.5836   -0.0718 C   0  0  0  0  0  0
   -5.8489    0.1534    0.0083 C   0  0  0  0  0  0
   -6.2919   -0.4992    1.1770 C   0  0  0  0  0  0
   -6.7647    0.4326   -1.0289 C   0  0  0  0  0  0
   -7.6477   -0.8479    1.3164 C   0  0  0  0  0  0
   -8.1229    0.0718   -0.9081 C   0  0  0  0  0  0
   -8.5590   -0.5696    0.2792 C   0  0  0  0  0  0
  -10.3199    0.0289   -1.8736 C   0  0  0  0  0  0
    5.0187   -3.5013   -1.6637 H   0  0  0  0  0  0
    6.9028   -5.0500   -2.1062 H   0  0  0  0  0  0
    7.7987   -4.4174   -0.6296 H   0  0  0  0  0  0
    7.8030   -2.1062   -1.6197 H   0  0  0  0  0  0
    6.9072   -2.7359   -3.0974 H   0  0  0  0  0  0
    6.7350   -2.4508    0.6619 H   0  0  0  0  0  0
    5.3271   -3.4549    0.8745 H   0  0  0  0  0  0
    2.8390   -0.1034   -1.9093 H   0  0  0  0  0  0
    2.2041    1.3447   -1.2361 H   0  0  0  0  0  0
    2.1268    1.2840    1.7533 H   0  0  0  0  0  0
    2.7306   -0.1896    2.3990 H   0  0  0  0  0  0
    6.1377   -0.0265   -0.5577 H   0  0  0  0  0  0
    6.0941   -0.0557    1.2208 H   0  0  0  0  0  0
    0.3515    0.0314   -1.9226 H   0  0  0  0  0  0
    0.9057   -1.4073   -1.1095 H   0  0  0  0  0  0
    0.8486   -1.4618    1.4443 H   0  0  0  0  0  0
    0.2533   -0.0688    2.2991 H   0  0  0  0  0  0
   -1.6553   -0.2434   -0.9032 H   0  0  0  0  0  0
   -1.3807   -1.4002    0.3745 H   0  0  0  0  0  0
   -1.8981    0.4385    2.0730 H   0  0  0  0  0  0
   -2.0956    1.5700    0.7750 H   0  0  0  0  0  0
    6.7478    2.0192    0.3795 H   0  0  0  0  0  0
    2.4603    2.7458    0.2965 H   0  0  0  0  0  0
    7.1243    4.4223    0.4328 H   0  0  0  0  0  0
    2.8848    5.1299    0.3505 H   0  0  0  0  0  0
    5.2093    6.0094    0.4193 H   0  0  0  0  0  0
   -4.0045   -1.9069    1.1971 H   0  0  0  0  0  0
   -3.4475   -1.0474    2.6459 H   0  0  0  0  0  0
   -6.4332    0.9360   -1.9258 H   0  0  0  0  0  0
   -7.9888   -1.3380    2.2164 H   0  0  0  0  0  0
   -9.5893   -0.8587    0.4194 H   0  0  0  0  0  0
  -10.8332    0.3339   -2.7854 H   0  0  0  0  0  0
  -10.4494   -1.0490   -1.7675 H   0  0  0  0  0  0
  -10.8041    0.5357   -1.0378 H   0  0  0  0  0  0
    0.1257    0.0795    0.1823 N   0  3  0  0  0  0
    0.1231    1.0896    0.1926 H   0  0  0  0  0  0
  1 15  2  0  0  0
  2 27  1  0  0  0
  2 30  1  0  0  0
  3 28  2  0  0  0
  4 33  1  0  0  0
  4 35  1  0  0  0
  5 12  1  0  0  0
  5 15  1  0  0  0
  5 16  1  0  0  0
  6  8  1  0  0  0
  6 16  1  0  0  0
  6 19  1  0  0  0
  7 21  1  0  0  0
  7 27  1  0  0  0
  7 28  1  0  0  0
  8 13  1  0  0  0
  8 14  1  0  0  0
  8 15  1  0  0  0
  9 10  1  0  0  0
  9 11  1  0  0  0
  9 12  1  0  0  0
  9 36  1  0  0  0
 10 11  1  0  0  0
 10 37  1  0  0  0
 10 38  1  0  0  0
 11 39  1  0  0  0
 11 40  1  0  0  0
 12 41  1  0  0  0
 12 42  1  0  0  0
 13 17  1  0  0  0
 13 43  1  0  0  0
 13 44  1  0  0  0
 14 18  1  0  0  0
 14 45  1  0  0  0
 14 46  1  0  0  0
 16 47  1  0  0  0
 16 48  1  0  0  0
 17 49  1  0  0  0
 17 50  1  0  0  0
 17 70  1  0  0  0
 18 51  1  0  0  0
 18 52  1  0  0  0
 18 70  1  0  0  0
 19 22  2  0  0  0
 19 23  1  0  0  0
 20 21  1  0  0  0
 20 53  1  0  0  0
 20 54  1  0  0  0
 20 70  1  0  0  0
 21 55  1  0  0  0
 21 56  1  0  0  0
 22 24  1  0  0  0
 22 57  1  0  0  0
 23 25  2  0  0  0
 23 58  1  0  0  0
 24 26  2  0  0  0
 24 59  1  0  0  0
 25 26  1  0  0  0
 25 60  1  0  0  0
 26 61  1  0  0  0
 27 62  1  0  0  0
 27 63  1  0  0  0
 28 29  1  0  0  0
 29 30  2  0  0  0
 29 31  1  0  0  0
 30 32  1  0  0  0
 31 33  2  0  0  0
 31 64  1  0  0  0
 32 34  2  0  0  0
 32 65  1  0  0  0
 33 34  1  0  0  0
 34 66  1  0  0  0
 35 67  1  0  0  0
 35 68  1  0  0  0
 35 69  1  0  0  0
 70 71  1  0  0  0
M  CHG  1  70   1
M  END
> <LID>
L020674

> <PC_CID>
44215360

> <Names>


> <CAS_Numbers>


$$$$
44215363
                    3D
 Structure written by MMmdl.
 76 81  0  0  1  0            999 V2000
   -1.7834    1.6441    0.9484 O   0  0  0  0  0  0
    6.1188    1.3511    1.4174 O   0  0  0  0  0  0
    5.2022   -1.0757   -1.6610 O   0  0  0  0  0  0
   -3.1810   -1.5285    0.2875 N   0  0  0  0  0  0
   -3.8031    0.5804    0.9802 N   0  0  0  0  0  0
    4.7909   -0.3652    0.4664 N   0  0  0  0  0  0
   -1.9557   -0.7235    0.3475 C   0  0  0  0  0  0
   -1.2482   -0.6401   -1.0297 C   0  0  0  0  0  0
   -0.9508   -1.3059    1.3755 C   0  0  0  0  0  0
   -2.4833    0.6434    0.7949 C   0  0  0  0  0  0
   -4.3297   -0.7506    0.7411 C   0  0  0  0  0  0
    0.1230    0.0625   -0.9785 C   0  0  0  0  0  0
    0.4156   -0.5913    1.3763 C   0  0  0  0  0  0
   -5.4570    2.3061    0.2261 C   0  0  0  0  0  0
   -4.6823    1.6701    1.4017 C   0  0  0  0  0  0
   -6.4450    3.3714    0.7443 C   0  0  0  0  0  0
   -4.5303    2.9192   -0.8486 C   0  0  0  0  0  0
   -3.2552   -2.8643    0.1023 C   0  0  0  0  0  0
    2.3870    0.0052   -0.0085 C   0  0  0  0  0  0
   -7.2452    4.0163   -0.3986 C   0  0  0  0  0  0
   -5.3289    3.5708   -1.9894 C   0  0  0  0  0  0
   -6.3113    4.6233   -1.4555 C   0  0  0  0  0  0
    3.4514   -0.9551    0.5567 C   0  0  0  0  0  0
   -3.5068   -3.7157    1.2005 C   0  0  0  0  0  0
   -3.1072   -3.4227   -1.1859 C   0  0  0  0  0  0
   -3.5902   -5.1095    1.0159 C   0  0  0  0  0  0
   -3.1916   -4.8164   -1.3707 C   0  0  0  0  0  0
   -3.4304   -5.6606   -0.2696 C   0  0  0  0  0  0
    5.3625    0.2037    1.6814 C   0  0  0  0  0  0
    5.5493   -0.4614   -0.6512 C   0  0  0  0  0  0
    6.8527    0.2821   -0.6105 C   0  0  0  0  0  0
    7.0695    1.2022    0.4377 C   0  0  0  0  0  0
    7.8292    0.1223   -1.6180 C   0  0  0  0  0  0
    8.2455    1.9766    0.4672 C   0  0  0  0  0  0
    9.0133    0.8848   -1.5762 C   0  0  0  0  0  0
    9.2194    1.8139   -0.5374 C   0  0  0  0  0  0
   -1.8906   -0.1410   -1.7570 H   0  0  0  0  0  0
   -1.0782   -1.6436   -1.4174 H   0  0  0  0  0  0
   -0.7771   -2.3612    1.1607 H   0  0  0  0  0  0
   -1.3773   -1.2756    2.3795 H   0  0  0  0  0  0
   -5.1031   -0.7316   -0.0276 H   0  0  0  0  0  0
   -4.7538   -1.1626    1.6578 H   0  0  0  0  0  0
    0.5792    0.0013   -1.9674 H   0  0  0  0  0  0
    0.0196    1.1249   -0.7583 H   0  0  0  0  0  0
    0.3254    0.4280    1.7520 H   0  0  0  0  0  0
    1.0713   -1.1119    2.0728 H   0  0  0  0  0  0
   -6.0447    1.5204   -0.2510 H   0  0  0  0  0  0
   -5.3870    1.2724    2.1331 H   0  0  0  0  0  0
   -4.1078    2.4345    1.9276 H   0  0  0  0  0  0
   -5.9005    4.1461    1.2861 H   0  0  0  0  0  0
   -7.1349    2.9234    1.4604 H   0  0  0  0  0  0
   -3.8790    2.1550   -1.2725 H   0  0  0  0  0  0
   -3.8763    3.6621   -0.3899 H   0  0  0  0  0  0
    2.6542    0.2372   -1.0407 H   0  0  0  0  0  0
    2.3956    0.9547    0.5295 H   0  0  0  0  0  0
   -7.9063    4.7868   -0.0008 H   0  0  0  0  0  0
   -7.8878    3.2677   -0.8638 H   0  0  0  0  0  0
   -5.8781    2.8025   -2.5351 H   0  0  0  0  0  0
   -4.6464    4.0294   -2.7055 H   0  0  0  0  0  0
   -6.8968    5.0375   -2.2768 H   0  0  0  0  0  0
   -5.7562    5.4552   -1.0200 H   0  0  0  0  0  0
    3.2401   -1.2044    1.5963 H   0  0  0  0  0  0
    3.4211   -1.9052    0.0201 H   0  0  0  0  0  0
   -3.6282   -3.3038    2.1918 H   0  0  0  0  0  0
   -2.9421   -2.7863   -2.0425 H   0  0  0  0  0  0
   -3.7775   -5.7556    1.8609 H   0  0  0  0  0  0
   -3.0779   -5.2376   -2.3588 H   0  0  0  0  0  0
   -3.4960   -6.7294   -0.4118 H   0  0  0  0  0  0
    4.5556    0.4830    2.3599 H   0  0  0  0  0  0
    5.9829   -0.5570    2.1593 H   0  0  0  0  0  0
    7.6743   -0.5745   -2.4293 H   0  0  0  0  0  0
    8.4049    2.6881    1.2641 H   0  0  0  0  0  0
    9.7601    0.7634   -2.3470 H   0  0  0  0  0  0
   10.1248    2.4024   -0.5115 H   0  0  0  0  0  0
    1.0210   -0.5772    0.0178 N   0  3  0  0  0  0
    1.1161   -1.5401   -0.2726 H   0  0  0  0  0  0
  1 10  2  0  0  0
  2 29  1  0  0  0
  2 32  1  0  0  0
  3 30  2  0  0  0
  4  7  1  0  0  0
  4 11  1  0  0  0
  4 18  1  0  0  0
  5 10  1  0  0  0
  5 11  1  0  0  0
  5 15  1  0  0  0
  6 23  1  0  0  0
  6 29  1  0  0  0
  6 30  1  0  0  0
  7  8  1  0  0  0
  7  9  1  0  0  0
  7 10  1  0  0  0
  8 12  1  0  0  0
  8 37  1  0  0  0
  8 38  1  0  0  0
  9 13  1  0  0  0
  9 39  1  0  0  0
  9 40  1  0  0  0
 11 41  1  0  0  0
 11 42  1  0  0  0
 12 43  1  0  0  0
 12 44  1  0  0  0
 12 75  1  0  0  0
 13 45  1  0  0  0
 13 46  1  0  0  0
 13 75  1  0  0  0
 14 15  1  0  0  0
 14 16  1  0  0  0
 14 17  1  0  0  0
 14 47  1  0  0  0
 15 48  1  0  0  0
 15 49  1  0  0  0
 16 20  1  0  0  0
 16 50  1  0  0  0
 16 51  1  0  0  0
 17 21  1  0  0  0
 17 52  1  0  0  0
 17 53  1  0  0  0
 18 24  2  0  0  0
 18 25  1  0  0  0
 19 23  1  0  0  0
 19 54  1  0  0  0
 19 55  1  0  0  0
 19 75  1  0  0  0
 20 22  1  0  0  0
 20 56  1  0  0  0
 20 57  1  0  0  0
 21 22  1  0  0  0
 21 58  1  0  0  0
 21 59  1  0  0  0
 22 60  1  0  0  0
 22 61  1  0  0  0
 23 62  1  0  0  0
 23 63  1  0  0  0
 24 26  1  0  0  0
 24 64  1  0  0  0
 25 27  2  0  0  0
 25 65  1  0  0  0
 26 28  2  0  0  0
 26 66  1  0  0  0
 27 28  1  0  0  0
 27 67  1  0  0  0
 28 68  1  0  0  0
 29 69  1  0  0  0
 29 70  1  0  0  0
 30 31  1  0  0  0
 31 32  1  0  0  0
 31 33  2  0  0  0
 32 34  2  0  0  0
 33 35  1  0  0  0
 33 71  1  0  0  0
 34 36  1  0  0  0
 34 72  1  0  0  0
 35 36  2  0  0  0
 35 73  1  0  0  0
 36 74  1  0  0  0
 75 76  1  0  0  0
M  CHG  1  75   1
M  END
> <LID>
L020677

> <PC_CID>
44215363

> <Names>


> <CAS_Numbers>


$$$$
44215362
                    3D
 Structure written by MMmdl.
 80 86  0  0  1  0            999 V2000
    3.0700    2.6707   -1.0572 O   0  0  0  0  0  0
   -5.0469    1.4936   -1.6013 O   0  0  0  0  0  0
   -3.6225    0.8450    2.1058 O   0  0  0  0  0  0
    5.0854    1.6135   -1.1152 N   0  0  0  0  0  0
    4.4990   -0.4990   -0.3275 N   0  0  0  0  0  0
   -3.4823    0.4586   -0.1451 N   0  0  0  0  0  0
    3.2746    0.3290   -0.3635 C   0  0  0  0  0  0
    6.3539    3.6799   -0.4955 C   0  0  0  0  0  0
    7.5437    4.5887   -0.6947 C   0  0  0  0  0  0
    7.6111    3.4667    0.3140 C   0  0  0  0  0  0
    5.9459    2.6972   -1.5757 C   0  0  0  0  0  0
    2.6631    0.5288    1.0549 C   0  0  0  0  0  0
    2.2149   -0.2375   -1.3543 C   0  0  0  0  0  0
    3.7786    1.6787   -0.8862 C   0  0  0  0  0  0
    5.6296    0.3115   -0.7974 C   0  0  0  0  0  0
    1.2667    1.1816    1.0456 C   0  0  0  0  0  0
    0.8403    0.4525   -1.2568 C   0  0  0  0  0  0
   -1.0617    0.9469    0.2607 C   0  0  0  0  0  0
    4.6593   -1.8037    0.0602 C   0  0  0  0  0  0
   -2.1153   -0.1143   -0.1491 C   0  0  1  0  0  0
    5.9448   -2.4080    0.0177 C   0  0  0  0  0  0
    3.5831   -2.6105    0.5154 C   0  0  0  0  0  0
   -2.0150   -1.4218    0.6812 C   0  0  0  0  0  0
    6.1448   -3.7459    0.4086 C   0  0  0  0  0  0
    3.7798   -3.9488    0.9070 C   0  0  0  0  0  0
   -4.2525    0.3630   -1.3860 C   0  0  0  0  0  0
   -3.1036   -2.4330    0.3607 C   0  0  0  0  0  0
   -4.1093    0.9035    0.9760 C   0  0  0  0  0  0
    5.0615   -4.5201    0.8544 C   0  0  0  0  0  0
   -5.4604    1.5239    0.7654 C   0  0  0  0  0  0
   -3.0660   -3.1474   -0.8554 C   0  0  0  0  0  0
   -4.1608   -2.6558    1.2686 C   0  0  0  0  0  0
   -5.8643    1.8269   -0.5514 C   0  0  0  0  0  0
   -6.3011    1.8558    1.8507 C   0  0  0  0  0  0
   -4.0817   -4.0728   -1.1643 C   0  0  0  0  0  0
   -5.1766   -3.5806    0.9586 C   0  0  0  0  0  0
   -7.0895    2.4811   -0.7846 C   0  0  0  0  0  0
   -5.1376   -4.2889   -0.2579 C   0  0  0  0  0  0
   -7.5352    2.4933    1.6147 C   0  0  0  0  0  0
   -7.9271    2.8100    0.2990 C   0  0  0  0  0  0
    5.5122    4.1234    0.0336 H   0  0  0  0  0  0
    7.4691    5.6048   -0.3126 H   0  0  0  0  0  0
    8.1222    4.4759   -1.6095 H   0  0  0  0  0  0
    8.2327    2.6075    0.0694 H   0  0  0  0  0  0
    7.5797    3.7340    1.3683 H   0  0  0  0  0  0
    6.8416    2.2743   -2.0330 H   0  0  0  0  0  0
    5.4360    3.2478   -2.3677 H   0  0  0  0  0  0
    3.3333    1.1364    1.6656 H   0  0  0  0  0  0
    2.5845   -0.4088    1.5973 H   0  0  0  0  0  0
    2.0589   -1.3033   -1.2154 H   0  0  0  0  0  0
    2.5817   -0.1515   -2.3786 H   0  0  0  0  0  0
    6.3905    0.4110   -0.0214 H   0  0  0  0  0  0
    6.0811   -0.1265   -1.6891 H   0  0  0  0  0  0
    0.8754    1.1670    2.0637 H   0  0  0  0  0  0
    1.3193    2.2313    0.7560 H   0  0  0  0  0  0
    0.8839    1.4738   -1.6355 H   0  0  0  0  0  0
    0.1475   -0.0780   -1.9084 H   0  0  0  0  0  0
   -1.2393    1.2396    1.2954 H   0  0  0  0  0  0
   -1.1801    1.8554   -0.3324 H   0  0  0  0  0  0
   -1.8921   -0.4067   -1.1733 H   0  0  0  0  0  0
    6.8149   -1.8637   -0.3155 H   0  0  0  0  0  0
    2.5757   -2.2390    0.5819 H   0  0  0  0  0  0
   -2.0364   -1.2004    1.7487 H   0  0  0  0  0  0
   -1.0526   -1.9027    0.5031 H   0  0  0  0  0  0
    7.1338   -4.1779    0.3653 H   0  0  0  0  0  0
    2.9421   -4.5386    1.2491 H   0  0  0  0  0  0
   -3.5813    0.2765   -2.2400 H   0  0  0  0  0  0
   -4.8753   -0.5326   -1.3353 H   0  0  0  0  0  0
    5.2130   -5.5466    1.1547 H   0  0  0  0  0  0
   -2.2609   -2.9841   -1.5568 H   0  0  0  0  0  0
   -4.2013   -2.1128    2.2018 H   0  0  0  0  0  0
   -6.0041    1.6339    2.8656 H   0  0  0  0  0  0
   -4.0515   -4.6165   -2.0970 H   0  0  0  0  0  0
   -5.9864   -3.7459    1.6540 H   0  0  0  0  0  0
   -7.3913    2.7213   -1.7934 H   0  0  0  0  0  0
   -5.9169   -4.9981   -0.4953 H   0  0  0  0  0  0
   -8.1778    2.7481    2.4447 H   0  0  0  0  0  0
   -8.8704    3.3050    0.1211 H   0  0  0  0  0  0
    0.3372    0.4574    0.1418 N   0  3  0  0  0  0
    0.3296   -0.5011    0.4599 H   0  0  0  0  0  0
  1 14  2  0  0  0
  2 26  1  0  0  0
  2 33  1  0  0  0
  3 28  2  0  0  0
  4 11  1  0  0  0
  4 14  1  0  0  0
  4 15  1  0  0  0
  5  7  1  0  0  0
  5 15  1  0  0  0
  5 19  1  0  0  0
  6 20  1  0  0  0
  6 26  1  0  0  0
  6 28  1  0  0  0
  7 12  1  0  0  0
  7 13  1  0  0  0
  7 14  1  0  0  0
  8  9  1  0  0  0
  8 10  1  0  0  0
  8 11  1  0  0  0
  8 41  1  0  0  0
  9 10  1  0  0  0
  9 42  1  0  0  0
  9 43  1  0  0  0
 10 44  1  0  0  0
 10 45  1  0  0  0
 11 46  1  0  0  0
 11 47  1  0  0  0
 12 16  1  0  0  0
 12 48  1  0  0  0
 12 49  1  0  0  0
 13 17  1  0  0  0
 13 50  1  0  0  0
 13 51  1  0  0  0
 15 52  1  0  0  0
 15 53  1  0  0  0
 16 54  1  0  0  0
 16 55  1  0  0  0
 16 79  1  0  0  0
 17 56  1  0  0  0
 17 57  1  0  0  0
 17 79  1  0  0  0
 18 20  1  0  0  0
 18 58  1  0  0  0
 18 59  1  0  0  0
 18 79  1  0  0  0
 19 21  2  0  0  0
 19 22  1  0  0  0
 20 23  1  0  0  0
 20 60  1  0  0  0
 21 24  1  0  0  0
 21 61  1  0  0  0
 22 25  2  0  0  0
 22 62  1  0  0  0
 23 27  1  0  0  0
 23 63  1  0  0  0
 23 64  1  0  0  0
 24 29  2  0  0  0
 24 65  1  0  0  0
 25 29  1  0  0  0
 25 66  1  0  0  0
 26 67  1  0  0  0
 26 68  1  0  0  0
 27 31  2  0  0  0
 27 32  1  0  0  0
 28 30  1  0  0  0
 29 69  1  0  0  0
 30 33  1  0  0  0
 30 34  2  0  0  0
 31 35  1  0  0  0
 31 70  1  0  0  0
 32 36  2  0  0  0
 32 71  1  0  0  0
 33 37  2  0  0  0
 34 39  1  0  0  0
 34 72  1  0  0  0
 35 38  2  0  0  0
 35 73  1  0  0  0
 36 38  1  0  0  0
 36 74  1  0  0  0
 37 40  1  0  0  0
 37 75  1  0  0  0
 38 76  1  0  0  0
 39 40  2  0  0  0
 39 77  1  0  0  0
 40 78  1  0  0  0
 79 80  1  0  0  0
M  CHG  1  79   1
M  END
> <LID>
L020676

> <PC_CID>
44215362

> <Names>


> <CAS_Numbers>


$$$$
441278
                    3D
 Structure written by MMmdl.
 49 51  0  0  1  0            999 V2000
   -4.4398   -2.3426   -0.8253 O   0  0  0  0  0  0
   -1.0555    1.2960   -0.8139 C   0  0  1  0  0  0
   -0.4158    2.2569    0.2287 C   0  0  2  0  0  0
    0.5286    1.4436    1.1377 C   0  0  1  0  0  0
    0.1102    0.7284   -1.6587 C   0  0  0  0  0  0
   -0.2664    0.3907    1.9476 C   0  0  0  0  0  0
   -1.7755    0.1227   -0.1204 C   0  0  0  0  0  0
    1.1675    0.0045   -0.8040 C   0  0  0  0  0  0
   -1.3781   -0.3082    1.1751 C   0  0  0  0  0  0
   -1.9922    2.0915   -1.7552 C   0  0  0  0  0  0
   -1.4326    3.0859    1.0449 C   0  0  0  0  0  0
    2.7250    0.2482    1.1160 C   0  0  0  0  0  0
   -2.8069   -0.5858   -0.7835 C   0  0  0  0  0  0
   -2.0245   -1.4027    1.7861 C   0  0  0  0  0  0
   -3.4461   -1.6783   -0.1677 C   0  0  0  0  0  0
   -3.0571   -2.0858    1.1203 C   0  0  0  0  0  0
    4.0325    0.2439    0.3408 C   0  0  0  0  0  0
    4.6760   -0.8188   -0.1848 C   0  0  0  0  0  0
    5.9955   -0.6529   -0.9133 C   0  0  0  0  0  0
    4.1845   -2.2554   -0.1148 C   0  0  0  0  0  0
    0.1925    2.9886   -0.3066 H   0  0  0  0  0  0
    1.0008    2.1277    1.8445 H   0  0  0  0  0  0
    0.5946    1.5377   -2.2073 H   0  0  0  0  0  0
   -0.2713    0.0417   -2.4158 H   0  0  0  0  0  0
   -0.7445    0.8906    2.7908 H   0  0  0  0  0  0
    0.3920   -0.3540    2.3934 H   0  0  0  0  0  0
    0.7757   -0.9355   -0.4144 H   0  0  0  0  0  0
    2.0094   -0.2637   -1.4425 H   0  0  0  0  0  0
   -1.4999    2.9874   -2.1349 H   0  0  0  0  0  0
   -2.2898    1.5116   -2.6285 H   0  0  0  0  0  0
   -2.9037    2.4076   -1.2472 H   0  0  0  0  0  0
   -0.9302    3.6679    1.8179 H   0  0  0  0  0  0
   -1.9666    3.7966    0.4145 H   0  0  0  0  0  0
   -2.1777    2.4598    1.5357 H   0  0  0  0  0  0
    2.8999    0.8354    2.0182 H   0  0  0  0  0  0
    2.4399   -0.7456    1.4552 H   0  0  0  0  0  0
   -3.1201   -0.3103   -1.7783 H   0  0  0  0  0  0
   -1.7275   -1.7236    2.7739 H   0  0  0  0  0  0
   -3.5431   -2.9231    1.5994 H   0  0  0  0  0  0
    4.4750    1.2214    0.2120 H   0  0  0  0  0  0
   -4.8051   -3.0567   -0.3260 H   0  0  0  0  0  0
    6.7737   -1.2382   -0.4228 H   0  0  0  0  0  0
    5.9054   -0.9984   -1.9435 H   0  0  0  0  0  0
    6.3187    0.3884   -0.9336 H   0  0  0  0  0  0
    4.8492   -2.8470    0.5151 H   0  0  0  0  0  0
    3.1733   -2.3545    0.2731 H   0  0  0  0  0  0
    4.1878   -2.6957   -1.1122 H   0  0  0  0  0  0
    1.6364    0.8643    0.3156 N   0  3  2  0  0  0
    2.0623    1.6664   -0.1264 H   0  0  0  0  0  0
  1 15  1  0  0  0
  1 41  1  0  0  0
  2  3  1  0  0  0
  2  5  1  0  0  0
  2  7  1  0  0  0
  2 10  1  0  0  0
  3  4  1  0  0  0
  3 11  1  0  0  0
  3 21  1  0  0  0
  4  6  1  0  0  0
  4 22  1  0  0  0
  4 48  1  0  0  0
  5  8  1  0  0  0
  5 23  1  0  0  0
  5 24  1  0  0  0
  6  9  1  0  0  0
  6 25  1  0  0  0
  6 26  1  0  0  0
  7  9  2  0  0  0
  7 13  1  0  0  0
  8 27  1  0  0  0
  8 28  1  0  0  0
  8 48  1  0  0  0
  9 14  1  0  0  0
 10 29  1  0  0  0
 10 30  1  0  0  0
 10 31  1  0  0  0
 11 32  1  0  0  0
 11 33  1  0  0  0
 11 34  1  0  0  0
 12 17  1  0  0  0
 12 35  1  0  0  0
 12 36  1  0  0  0
 12 48  1  0  0  0
 13 15  2  0  0  0
 13 37  1  0  0  0
 14 16  2  0  0  0
 14 38  1  0  0  0
 15 16  1  0  0  0
 16 39  1  0  0  0
 17 18  2  0  0  0
 17 40  1  0  0  0
 18 19  1  0  0  0
 18 20  1  0  0  0
 19 42  1  0  0  0
 19 43  1  0  0  0
 19 44  1  0  0  0
 20 45  1  0  0  0
 20 46  1  0  0  0
 20 47  1  0  0  0
 48 49  1  0  0  0
M  CHG  1  48   1
M  END
> <LID>
L013413

> <PC_CID>
441278

> <Names>
KF 1820;Pentazocine

> <CAS_Numbers>
359-83-1;64024-15-3

$$$$
11396696
                    3D
 Structure written by MMmdl.
 71 73  0  0  1  0            999 V2000
    4.4934    3.5780   -0.3896 O   0  0  0  0  0  0
   -5.1106    4.9400   -1.2873 O   0  0  0  0  0  0
    5.4671    1.5571    0.0074 N   0  0  0  0  0  0
   -6.3515    3.8599    0.2434 N   0  0  0  0  0  0
   -2.6623   -3.0077   -0.2255 C   0  0  0  0  0  0
   -0.2356   -3.3832   -0.0395 C   0  0  0  0  0  0
   -2.5712   -1.7718    0.6863 C   0  0  0  0  0  0
   -0.0947   -2.1632    0.8846 C   0  0  0  0  0  0
   -1.1876   -1.1355    0.6117 C   0  0  0  0  0  0
   -1.7364   -5.2338   -0.7377 C   0  0  0  0  0  0
   -0.9583    0.1730    0.3288 C   0  0  0  0  0  0
   -1.0278   -6.4415   -0.0988 C   0  0  0  0  0  0
   -1.2747   -7.7423   -0.8766 C   0  0  0  0  0  0
    0.4063    0.7125    0.2094 C   0  0  0  0  0  0
   -2.0580    1.1329    0.1314 C   0  0  0  0  0  0
   -0.5718   -8.9487   -0.2443 C   0  0  0  0  0  0
    0.8864    1.6412    1.1565 C   0  0  0  0  0  0
    1.2286    0.3499   -0.8792 C   0  0  0  0  0  0
   -2.2389    1.7537   -1.1218 C   0  0  0  0  0  0
   -2.9124    1.4796    1.1998 C   0  0  0  0  0  0
    2.1832    2.1765    1.0353 C   0  0  0  0  0  0
    2.5257    0.8834   -1.0011 C   0  0  0  0  0  0
    3.0170    1.7855   -0.0333 C   0  0  0  0  0  0
   -3.2742    2.6890   -1.3121 C   0  0  0  0  0  0
   -3.9487    2.4145    1.0118 C   0  0  0  0  0  0
   -4.1462    3.0191   -0.2513 C   0  0  0  0  0  0
    4.3925    2.3728   -0.1571 C   0  0  0  0  0  0
    6.8315    2.0902   -0.1222 C   0  0  0  0  0  0
    5.4043    0.1521    0.4448 C   0  0  0  0  0  0
   -5.2323    4.0353   -0.4641 C   0  0  0  0  0  0
    7.2972    2.7925    1.1629 C   0  0  0  0  0  0
    5.6277   -0.8339   -0.7132 C   0  0  0  0  0  0
   -2.5991   -2.7024   -1.2714 H   0  0  0  0  0  0
   -3.6386   -3.4755   -0.0917 H   0  0  0  0  0  0
    0.5312   -4.1105    0.2242 H   0  0  0  0  0  0
   -0.0473   -3.0883   -1.0732 H   0  0  0  0  0  0
   -2.7596   -2.0604    1.7210 H   0  0  0  0  0  0
   -3.3644   -1.0782    0.4121 H   0  0  0  0  0  0
    0.9080   -1.7492    0.7951 H   0  0  0  0  0  0
   -0.1887   -2.4827    1.9232 H   0  0  0  0  0  0
   -2.7965   -5.4767   -0.8247 H   0  0  0  0  0  0
   -1.3764   -5.0649   -1.7539 H   0  0  0  0  0  0
    0.0465   -6.2676   -0.0434 H   0  0  0  0  0  0
   -1.3751   -6.5654    0.9279 H   0  0  0  0  0  0
   -2.3458   -7.9410   -0.9308 H   0  0  0  0  0  0
   -0.9303   -7.6256   -1.9048 H   0  0  0  0  0  0
   -0.7657   -9.8555   -0.8177 H   0  0  0  0  0  0
    0.5082   -8.8027   -0.2096 H   0  0  0  0  0  0
   -0.9205   -9.1193    0.7746 H   0  0  0  0  0  0
    0.2592    1.9453    1.9819 H   0  0  0  0  0  0
    0.8626   -0.3380   -1.6274 H   0  0  0  0  0  0
   -1.5815    1.5131   -1.9447 H   0  0  0  0  0  0
   -2.7717    1.0291    2.1716 H   0  0  0  0  0  0
    2.5375    2.8851    1.7703 H   0  0  0  0  0  0
    3.1337    0.6081   -1.8495 H   0  0  0  0  0  0
   -3.3948    3.1512   -2.2814 H   0  0  0  0  0  0
   -4.5814    2.6664    1.8504 H   0  0  0  0  0  0
    7.5295    1.2868   -0.3591 H   0  0  0  0  0  0
    6.8914    2.7799   -0.9660 H   0  0  0  0  0  0
    6.1728   -0.0138    1.2010 H   0  0  0  0  0  0
    4.4675   -0.0798    0.9517 H   0  0  0  0  0  0
    8.3170    3.1616    1.0523 H   0  0  0  0  0  0
    6.6635    3.6459    1.4054 H   0  0  0  0  0  0
    7.2826    2.1118    2.0143 H   0  0  0  0  0  0
    5.5811   -1.8620   -0.3537 H   0  0  0  0  0  0
    4.8757   -0.7270   -1.4924 H   0  0  0  0  0  0
    6.6043   -0.6958   -1.1769 H   0  0  0  0  0  0
   -7.1213    4.5015    0.1222 H   0  0  0  0  0  0
   -6.4264    3.0862    0.8869 H   0  0  0  0  0  0
   -1.5883   -3.9928    0.0653 N   0  3  2  0  0  0
   -1.7137   -4.2622    1.0308 H   0  0  0  0  0  0
  1 27  2  0  0  0
  2 30  2  0  0  0
  3 27  1  0  0  0
  3 28  1  0  0  0
  3 29  1  0  0  0
  4 30  1  0  0  0
  4 68  1  0  0  0
  4 69  1  0  0  0
  5  7  1  0  0  0
  5 33  1  0  0  0
  5 34  1  0  0  0
  5 70  1  0  0  0
  6  8  1  0  0  0
  6 35  1  0  0  0
  6 36  1  0  0  0
  6 70  1  0  0  0
  7  9  1  0  0  0
  7 37  1  0  0  0
  7 38  1  0  0  0
  8  9  1  0  0  0
  8 39  1  0  0  0
  8 40  1  0  0  0
  9 11  2  0  0  0
 10 12  1  0  0  0
 10 41  1  0  0  0
 10 42  1  0  0  0
 10 70  1  0  0  0
 11 14  1  0  0  0
 11 15  1  0  0  0
 12 13  1  0  0  0
 12 43  1  0  0  0
 12 44  1  0  0  0
 13 16  1  0  0  0
 13 45  1  0  0  0
 13 46  1  0  0  0
 14 17  2  0  0  0
 14 18  1  0  0  0
 15 19  2  0  0  0
 15 20  1  0  0  0
 16 47  1  0  0  0
 16 48  1  0  0  0
 16 49  1  0  0  0
 17 21  1  0  0  0
 17 50  1  0  0  0
 18 22  2  0  0  0
 18 51  1  0  0  0
 19 24  1  0  0  0
 19 52  1  0  0  0
 20 25  2  0  0  0
 20 53  1  0  0  0
 21 23  2  0  0  0
 21 54  1  0  0  0
 22 23  1  0  0  0
 22 55  1  0  0  0
 23 27  1  0  0  0
 24 26  2  0  0  0
 24 56  1  0  0  0
 25 26  1  0  0  0
 25 57  1  0  0  0
 26 30  1  0  0  0
 28 31  1  0  0  0
 28 58  1  0  0  0
 28 59  1  0  0  0
 29 32  1  0  0  0
 29 60  1  0  0  0
 29 61  1  0  0  0
 31 62  1  0  0  0
 31 63  1  0  0  0
 31 64  1  0  0  0
 32 65  1  0  0  0
 32 66  1  0  0  0
 32 67  1  0  0  0
 70 71  1  0  0  0
M  CHG  1  70   1
M  END
> <LID>
L023464

> <PC_CID>
11396696

> <Names>


> <CAS_Numbers>


$$$$
12988886
                    3D
 Structure written by MMmdl.
 62 65  0  0  1  0            999 V2000
   -4.2360    0.3699    3.0721 O   0  0  0  0  0  0
    0.8938   -1.5043   -0.1911 N   0  0  0  0  0  0
   -4.6238    1.5837    1.1838 N   0  0  0  0  0  0
    1.8291   -2.1482    0.7517 C   0  0  0  0  0  0
    3.2054   -1.4524    0.8207 C   0  0  0  0  0  0
    2.0233   -3.6574    0.4921 C   0  0  0  0  0  0
    4.1157   -2.1305    1.8593 C   0  0  0  0  0  0
    2.9493   -4.2805    1.5493 C   0  0  0  0  0  0
    1.2202   -1.4342   -1.5083 C   0  0  0  0  0  0
   -0.2463   -0.9772    0.3201 C   0  0  0  0  0  0
    1.7877   -0.2643   -2.0915 C   0  0  0  0  0  0
    0.9660   -2.5566   -2.3293 C   0  0  0  0  0  0
   -0.2119   -0.0906    1.4215 C   0  0  0  0  0  0
   -1.4972   -1.3137   -0.2444 C   0  0  0  0  0  0
    2.1156   -0.2606   -3.4751 C   0  0  0  0  0  0
    2.0348    0.9094   -1.3369 C   0  0  0  0  0  0
    1.2911   -2.5434   -3.6966 C   0  0  0  0  0  0
   -1.4020    0.4531    1.9413 C   0  0  0  0  0  0
   -2.6878   -0.7705    0.2749 C   0  0  0  0  0  0
   -2.6453    0.1295    1.3604 C   0  0  0  0  0  0
    1.8707   -1.3988   -4.2680 C   0  0  0  0  0  0
    2.6858    0.8833   -4.0719 C   0  0  0  0  0  0
    2.6025    2.0488   -1.9375 C   0  0  0  0  0  0
   -3.9072    0.7055    1.9337 C   0  0  0  0  0  0
    2.9305    2.0361   -3.3044 C   0  0  0  0  0  0
   -5.8728    2.1593    1.7050 C   0  0  0  0  0  0
   -4.1939    2.1403   -0.1104 C   0  0  0  0  0  0
   -5.6085    3.3404    2.6520 C   0  0  0  0  0  0
   -4.9319    1.5022   -1.2984 C   0  0  0  0  0  0
    1.3956   -2.0805    1.7506 H   0  0  0  0  0  0
    3.0847   -0.4023    1.0861 H   0  0  0  0  0  0
    3.6919   -1.4751   -0.1554 H   0  0  0  0  0  0
    2.4616   -3.8252   -0.4917 H   0  0  0  0  0  0
    1.0590   -4.1670    0.5002 H   0  0  0  0  0  0
    3.7104   -1.9946    2.8630 H   0  0  0  0  0  0
    5.1047   -1.6716    1.8514 H   0  0  0  0  0  0
    3.1190   -5.3346    1.3288 H   0  0  0  0  0  0
    2.4873   -4.2318    2.5364 H   0  0  0  0  0  0
    0.5132   -3.4429   -1.9094 H   0  0  0  0  0  0
    0.7298    0.1853    1.8727 H   0  0  0  0  0  0
   -1.5541   -1.9997   -1.0768 H   0  0  0  0  0  0
    1.7912    0.9571   -0.2874 H   0  0  0  0  0  0
    1.0939   -3.4119   -4.3076 H   0  0  0  0  0  0
   -1.3553    1.1283    2.7837 H   0  0  0  0  0  0
   -3.6334   -1.0606   -0.1573 H   0  0  0  0  0  0
    2.1179   -1.3962   -5.3199 H   0  0  0  0  0  0
    2.9358    0.8832   -5.1230 H   0  0  0  0  0  0
    2.7851    2.9348   -1.3474 H   0  0  0  0  0  0
    3.3657    2.9108   -3.7650 H   0  0  0  0  0  0
   -6.5033    2.4995    0.8832 H   0  0  0  0  0  0
   -6.4586    1.3945    2.2181 H   0  0  0  0  0  0
   -4.3879    3.2138   -0.1116 H   0  0  0  0  0  0
   -3.1169    2.0571   -0.2571 H   0  0  0  0  0  0
   -6.5467    3.7646    3.0100 H   0  0  0  0  0  0
   -5.0326    3.0328    3.5253 H   0  0  0  0  0  0
   -5.0566    4.1353    2.1499 H   0  0  0  0  0  0
   -4.5931    1.9395   -2.2377 H   0  0  0  0  0  0
   -4.7603    0.4293   -1.3582 H   0  0  0  0  0  0
   -6.0084    1.6605   -1.2360 H   0  0  0  0  0  0
    4.2504   -3.5772    1.5812 N   0  3  0  0  0  0
    4.8335   -3.9959    2.2921 H   0  0  0  0  0  0
    4.6999   -3.6917    0.6837 H   0  0  0  0  0  0
  1 24  2  0  0  0
  2  4  1  0  0  0
  2  9  1  0  0  0
  2 10  1  0  0  0
  3 24  1  0  0  0
  3 26  1  0  0  0
  3 27  1  0  0  0
  4  5  1  0  0  0
  4  6  1  0  0  0
  4 30  1  0  0  0
  5  7  1  0  0  0
  5 31  1  0  0  0
  5 32  1  0  0  0
  6  8  1  0  0  0
  6 33  1  0  0  0
  6 34  1  0  0  0
  7 35  1  0  0  0
  7 36  1  0  0  0
  7 60  1  0  0  0
  8 37  1  0  0  0
  8 38  1  0  0  0
  8 60  1  0  0  0
  9 11  1  0  0  0
  9 12  2  0  0  0
 10 13  2  0  0  0
 10 14  1  0  0  0
 11 15  1  0  0  0
 11 16  2  0  0  0
 12 17  1  0  0  0
 12 39  1  0  0  0
 13 18  1  0  0  0
 13 40  1  0  0  0
 14 19  2  0  0  0
 14 41  1  0  0  0
 15 21  1  0  0  0
 15 22  2  0  0  0
 16 23  1  0  0  0
 16 42  1  0  0  0
 17 21  2  0  0  0
 17 43  1  0  0  0
 18 20  2  0  0  0
 18 44  1  0  0  0
 19 20  1  0  0  0
 19 45  1  0  0  0
 20 24  1  0  0  0
 21 46  1  0  0  0
 22 25  1  0  0  0
 22 47  1  0  0  0
 23 25  2  0  0  0
 23 48  1  0  0  0
 25 49  1  0  0  0
 26 28  1  0  0  0
 26 50  1  0  0  0
 26 51  1  0  0  0
 27 29  1  0  0  0
 27 52  1  0  0  0
 27 53  1  0  0  0
 28 54  1  0  0  0
 28 55  1  0  0  0
 28 56  1  0  0  0
 29 57  1  0  0  0
 29 58  1  0  0  0
 29 59  1  0  0  0
 60 61  1  0  0  0
 60 62  1  0  0  0
M  CHG  1  60   1
M  END
> <LID>
L018209

> <PC_CID>
12988886

> <Names>


> <CAS_Numbers>


$$$$
10808721
                    3D
 Structure written by MMmdl.
 57 59  0  0  1  0            999 V2000
   -4.1463    2.0847    0.9698 O   0  0  0  0  0  0
   -4.8686    0.3096   -0.2619 N   0  0  0  0  0  0
    3.8506    3.7344    0.8729 N   0  0  0  0  0  0
    2.0847   -1.7949    0.1180 C   0  0  0  0  0  0
    3.5456   -2.2399    0.0845 C   0  0  0  0  0  0
    1.1533   -2.9613    0.4425 C   0  0  0  0  0  0
    3.9299   -2.9803    1.3777 C   0  0  0  0  0  0
    1.5870   -3.6762    1.7327 C   0  0  0  0  0  0
    1.6674   -0.5213   -0.1027 C   0  0  0  0  0  0
    0.2491   -0.1415    0.0036 C   0  0  0  0  0  0
    2.6033    0.5548   -0.4713 C   0  0  0  0  0  0
   -0.3906   -0.1024    1.2613 C   0  0  0  0  0  0
   -0.4704    0.2393   -1.1482 C   0  0  0  0  0  0
    2.7935    1.6531    0.3949 C   0  0  0  0  0  0
    3.2860    0.5236   -1.7072 C   0  0  0  0  0  0
   -2.4712    0.6257    0.2046 C   0  0  0  0  0  0
   -1.7414    0.2815    1.3618 C   0  0  0  0  0  0
   -1.8213    0.6238   -1.0492 C   0  0  0  0  0  0
   -3.9030    1.0608    0.3301 C   0  0  0  0  0  0
    3.6711    2.6979    0.0414 C   0  0  0  0  0  0
    4.1637    1.5658   -2.0622 C   0  0  0  0  0  0
   -6.2746    0.7384   -0.2283 C   0  0  0  0  0  0
   -4.6515   -1.0057   -0.8870 C   0  0  0  0  0  0
    4.3585    2.6519   -1.1877 C   0  0  0  0  0  0
   -6.6012    1.6729   -1.4014 C   0  0  0  0  0  0
   -4.5620   -2.1247    0.1611 C   0  0  0  0  0  0
    3.6816   -2.8989   -0.7739 H   0  0  0  0  0  0
    4.2327   -1.4072   -0.0563 H   0  0  0  0  0  0
    0.1097   -2.6621    0.5221 H   0  0  0  0  0  0
    1.1950   -3.6624   -0.3920 H   0  0  0  0  0  0
    4.9455   -3.3696    1.3030 H   0  0  0  0  0  0
    3.9163   -2.2896    2.2222 H   0  0  0  0  0  0
    1.4561   -3.0153    2.5908 H   0  0  0  0  0  0
    0.9626   -4.5526    1.9079 H   0  0  0  0  0  0
    0.1563   -0.3670    2.1545 H   0  0  0  0  0  0
    0.0143    0.2383   -2.1137 H   0  0  0  0  0  0
    2.2635    1.6894    1.3360 H   0  0  0  0  0  0
    3.1376   -0.3032   -2.3866 H   0  0  0  0  0  0
   -2.2172    0.3066    2.3318 H   0  0  0  0  0  0
   -2.3564    0.9185   -1.9405 H   0  0  0  0  0  0
    4.6860    1.5336   -3.0070 H   0  0  0  0  0  0
   -6.9357   -0.1289   -0.2599 H   0  0  0  0  0  0
   -6.5099    1.2336    0.7154 H   0  0  0  0  0  0
   -5.4706   -1.2281   -1.5723 H   0  0  0  0  0  0
   -3.7661   -1.0152   -1.5189 H   0  0  0  0  0  0
    5.0332    3.4481   -1.4676 H   0  0  0  0  0  0
   -7.6491    1.9721   -1.3776 H   0  0  0  0  0  0
   -5.9974    2.5803   -1.3658 H   0  0  0  0  0  0
   -6.4170    1.1844   -2.3587 H   0  0  0  0  0  0
   -4.4426   -3.0954   -0.3203 H   0  0  0  0  0  0
   -3.7124   -1.9825    0.8291 H   0  0  0  0  0  0
   -5.4647   -2.1665    0.7713 H   0  0  0  0  0  0
    4.3915    4.5394    0.5912 H   0  0  0  0  0  0
    3.2865    3.8391    1.7041 H   0  0  0  0  0  0
    3.0021   -4.0982    1.6547 N   0  3  0  0  0  0
    3.2641   -4.5346    2.5275 H   0  0  0  0  0  0
    3.0917   -4.7781    0.9130 H   0  0  0  0  0  0
  1 19  2  0  0  0
  2 19  1  0  0  0
  2 22  1  0  0  0
  2 23  1  0  0  0
  3 20  1  0  0  0
  3 53  1  0  0  0
  3 54  1  0  0  0
  4  5  1  0  0  0
  4  6  1  0  0  0
  4  9  2  0  0  0
  5  7  1  0  0  0
  5 27  1  0  0  0
  5 28  1  0  0  0
  6  8  1  0  0  0
  6 29  1  0  0  0
  6 30  1  0  0  0
  7 31  1  0  0  0
  7 32  1  0  0  0
  7 55  1  0  0  0
  8 33  1  0  0  0
  8 34  1  0  0  0
  8 55  1  0  0  0
  9 10  1  0  0  0
  9 11  1  0  0  0
 10 12  2  0  0  0
 10 13  1  0  0  0
 11 14  2  0  0  0
 11 15  1  0  0  0
 12 17  1  0  0  0
 12 35  1  0  0  0
 13 18  2  0  0  0
 13 36  1  0  0  0
 14 20  1  0  0  0
 14 37  1  0  0  0
 15 21  2  0  0  0
 15 38  1  0  0  0
 16 17  2  0  0  0
 16 18  1  0  0  0
 16 19  1  0  0  0
 17 39  1  0  0  0
 18 40  1  0  0  0
 20 24  2  0  0  0
 21 24  1  0  0  0
 21 41  1  0  0  0
 22 25  1  0  0  0
 22 42  1  0  0  0
 22 43  1  0  0  0
 23 26  1  0  0  0
 23 44  1  0  0  0
 23 45  1  0  0  0
 24 46  1  0  0  0
 25 47  1  0  0  0
 25 48  1  0  0  0
 25 49  1  0  0  0
 26 50  1  0  0  0
 26 51  1  0  0  0
 26 52  1  0  0  0
 55 56  1  0  0  0
 55 57  1  0  0  0
M  CHG  1  55   1
M  END
> <LID>
L021992

> <PC_CID>
10808721

> <Names>


> <CAS_Numbers>


$$$$
10435215
                    3D
 Structure written by MMmdl.
 71 75  0  0  1  0            999 V2000
    2.4155   -2.3292    0.5627 O   0  0  0  0  0  0
    3.9640    0.8219    0.0215 N   0  0  0  0  0  0
    4.4651   -1.4514    0.1083 N   0  0  0  0  0  0
    6.4934   -5.5688   -1.5321 N   0  0  0  0  0  0
    2.7138    0.0923    0.3234 C   0  0  0  0  0  0
    2.1351    0.4748    1.7176 C   0  0  0  0  0  0
    1.6442    0.2780   -0.7934 C   0  0  0  0  0  0
    0.7220   -0.0829    1.9793 C   0  0  0  0  0  0
    0.2520   -0.2698   -0.4212 C   0  0  0  0  0  0
    3.1617   -1.3734    0.3512 C   0  0  0  0  0  0
    5.0569   -0.1498   -0.1108 C   0  0  0  0  0  0
   -1.6157   -0.1021    1.2005 C   0  0  0  0  0  0
    4.1752    2.1680   -0.1273 C   0  0  0  0  0  0
    5.2640   -2.6695    0.0266 C   0  0  0  0  0  0
   -2.6439    0.7310    0.4089 C   0  0  0  0  0  0
   -4.1072    0.4340    0.8104 C   0  0  0  0  0  0
    5.4762    2.6580   -0.4224 C   0  0  0  0  0  0
    3.1385    3.1299    0.0002 C   0  0  0  0  0  0
    5.0533   -3.3825   -1.3156 C   0  0  0  0  0  0
   -5.1072    1.3845    0.1585 C   0  0  0  0  0  0
   -4.5082   -1.0259    0.6157 C   0  0  0  0  0  0
    5.7282    4.0341   -0.5817 C   0  0  0  0  0  0
    3.3874    4.5069   -0.1585 C   0  0  0  0  0  0
    4.6832    4.9627   -0.4500 C   0  0  0  0  0  0
    5.8591   -4.6062   -1.4370 C   0  0  0  0  0  0
   -5.1055    1.6045   -1.2380 C   0  0  0  0  0  0
   -5.0973   -1.7385    1.6833 C   0  0  0  0  0  0
   -6.0600    2.0532    0.9587 C   0  0  0  0  0  0
   -4.3009   -1.6815   -0.6193 C   0  0  0  0  0  0
   -6.0387    2.4826   -1.8224 C   0  0  0  0  0  0
   -5.4696   -3.0870    1.5211 C   0  0  0  0  0  0
   -6.9931    2.9314    0.3741 C   0  0  0  0  0  0
   -4.6731   -3.0300   -0.7812 C   0  0  0  0  0  0
   -6.9824    3.1472   -1.0168 C   0  0  0  0  0  0
   -5.2569   -3.7337    0.2890 C   0  0  0  0  0  0
    2.0960    1.5509    1.8583 H   0  0  0  0  0  0
    2.8046    0.1255    2.5057 H   0  0  0  0  0  0
    1.5240    1.3214   -1.0697 H   0  0  0  0  0  0
    1.9800   -0.2057   -1.7123 H   0  0  0  0  0  0
    0.3578    0.3314    2.9203 H   0  0  0  0  0  0
    0.7402   -1.1649    2.1118 H   0  0  0  0  0  0
    0.2535   -1.3593   -0.3867 H   0  0  0  0  0  0
   -0.4435    0.0023   -1.2140 H   0  0  0  0  0  0
    5.8337    0.0319    0.6338 H   0  0  0  0  0  0
    5.4987   -0.1102   -1.1079 H   0  0  0  0  0  0
   -1.7558   -1.1707    1.0310 H   0  0  0  0  0  0
   -1.7997    0.0647    2.2628 H   0  0  0  0  0  0
    6.3185   -2.4208    0.1528 H   0  0  0  0  0  0
    5.0028   -3.3345    0.8513 H   0  0  0  0  0  0
   -2.4434    1.7890    0.5837 H   0  0  0  0  0  0
   -2.5120    0.5735   -0.6600 H   0  0  0  0  0  0
   -4.1602    0.6294    1.8827 H   0  0  0  0  0  0
    6.3189    1.9935   -0.5353 H   0  0  0  0  0  0
    2.1231    2.8531    0.2223 H   0  0  0  0  0  0
    4.0072   -3.6614   -1.4449 H   0  0  0  0  0  0
    5.3192   -2.7251   -2.1437 H   0  0  0  0  0  0
    6.7279    4.3765   -0.8057 H   0  0  0  0  0  0
    2.5789    5.2157   -0.0558 H   0  0  0  0  0  0
    4.8747    6.0188   -0.5718 H   0  0  0  0  0  0
   -4.3928    1.1012   -1.8734 H   0  0  0  0  0  0
   -5.2686   -1.2544    2.6337 H   0  0  0  0  0  0
   -6.0827    1.8949    2.0270 H   0  0  0  0  0  0
   -3.8565   -1.1571   -1.4516 H   0  0  0  0  0  0
   -6.0314    2.6453   -2.8902 H   0  0  0  0  0  0
   -5.9197   -3.6253    2.3422 H   0  0  0  0  0  0
   -7.7183    3.4387    0.9932 H   0  0  0  0  0  0
   -4.5117   -3.5246   -1.7277 H   0  0  0  0  0  0
   -7.6985    3.8200   -1.4654 H   0  0  0  0  0  0
   -5.5432   -4.7677    0.1644 H   0  0  0  0  0  0
   -0.2139    0.2723    0.8823 N   0  3  0  0  0  0
   -0.1966    1.2797    0.8112 H   0  0  0  0  0  0
  1 10  2  0  0  0
  2  5  1  0  0  0
  2 11  1  0  0  0
  2 13  1  0  0  0
  3 10  1  0  0  0
  3 11  1  0  0  0
  3 14  1  0  0  0
  4 25  3  0  0  0
  5  6  1  0  0  0
  5  7  1  0  0  0
  5 10  1  0  0  0
  6  8  1  0  0  0
  6 36  1  0  0  0
  6 37  1  0  0  0
  7  9  1  0  0  0
  7 38  1  0  0  0
  7 39  1  0  0  0
  8 40  1  0  0  0
  8 41  1  0  0  0
  8 70  1  0  0  0
  9 42  1  0  0  0
  9 43  1  0  0  0
  9 70  1  0  0  0
 11 44  1  0  0  0
 11 45  1  0  0  0
 12 15  1  0  0  0
 12 46  1  0  0  0
 12 47  1  0  0  0
 12 70  1  0  0  0
 13 17  2  0  0  0
 13 18  1  0  0  0
 14 19  1  0  0  0
 14 48  1  0  0  0
 14 49  1  0  0  0
 15 16  1  0  0  0
 15 50  1  0  0  0
 15 51  1  0  0  0
 16 20  1  0  0  0
 16 21  1  0  0  0
 16 52  1  0  0  0
 17 22  1  0  0  0
 17 53  1  0  0  0
 18 23  2  0  0  0
 18 54  1  0  0  0
 19 25  1  0  0  0
 19 55  1  0  0  0
 19 56  1  0  0  0
 20 26  2  0  0  0
 20 28  1  0  0  0
 21 27  2  0  0  0
 21 29  1  0  0  0
 22 24  2  0  0  0
 22 57  1  0  0  0
 23 24  1  0  0  0
 23 58  1  0  0  0
 24 59  1  0  0  0
 26 30  1  0  0  0
 26 60  1  0  0  0
 27 31  1  0  0  0
 27 61  1  0  0  0
 28 32  2  0  0  0
 28 62  1  0  0  0
 29 33  2  0  0  0
 29 63  1  0  0  0
 30 34  2  0  0  0
 30 64  1  0  0  0
 31 35  2  0  0  0
 31 65  1  0  0  0
 32 34  1  0  0  0
 32 66  1  0  0  0
 33 35  1  0  0  0
 33 67  1  0  0  0
 34 68  1  0  0  0
 35 69  1  0  0  0
 70 71  1  0  0  0
M  CHG  1  70   1
M  END
> <LID>
L022592

> <PC_CID>
10435215

> <Names>


> <CAS_Numbers>


$$$$
19367726
                    3D
 Structure written by MMmdl.
 48 50  0  0  1  0            999 V2000
   -1.4728    1.5156   -2.1706 S   0  0  0  0  0  0
   -5.2102   -0.6595    0.7235 O   0  0  0  0  0  0
    2.5841   -3.2207   -2.4131 O   0  0  0  0  0  0
    0.8766    1.5911   -0.1255 C   0  0  0  0  0  0
    0.3753    0.3484    0.0928 C   0  0  0  0  0  0
   -0.0221    2.8217   -0.1641 C   0  0  0  0  0  0
    2.3544    1.8837   -0.3886 C   0  0  0  0  0  0
   -1.0850    0.1222    0.2097 C   0  0  0  0  0  0
   -0.6745    3.0228   -1.5394 C   0  0  0  0  0  0
   -2.0127    0.6115   -0.7477 C   0  0  0  0  0  0
    1.2494   -0.8342    0.0562 C   0  0  0  0  0  0
   -1.5787   -0.6151    1.3074 C   0  0  0  0  0  0
   -3.3918    0.3614   -0.6014 C   0  0  0  0  0  0
    1.5061   -1.4699   -1.1761 C   0  0  0  0  0  0
    1.7973   -1.3527    1.2479 C   0  0  0  0  0  0
   -2.9570   -0.8574    1.4534 C   0  0  0  0  0  0
   -3.8792   -0.3751    0.5054 C   0  0  0  0  0  0
    3.0663    1.9160    1.9854 C   0  0  0  0  0  0
    4.2788    3.2393    0.3164 C   0  0  0  0  0  0
    2.3298   -2.6117   -1.2191 C   0  0  0  0  0  0
    2.6203   -2.4945    1.2022 C   0  0  0  0  0  0
    2.8884   -3.1226   -0.0301 C   0  0  0  0  0  0
   -6.1590   -0.1845   -0.2204 C   0  0  0  0  0  0
   -0.7959    2.7334    0.5993 H   0  0  0  0  0  0
    0.5414    3.7134    0.1102 H   0  0  0  0  0  0
    2.9400    0.9802   -0.5571 H   0  0  0  0  0  0
    2.4108    2.4519   -1.3181 H   0  0  0  0  0  0
   -1.4225    3.8135   -1.4772 H   0  0  0  0  0  0
    0.0668    3.3472   -2.2700 H   0  0  0  0  0  0
   -0.8998   -0.9993    2.0540 H   0  0  0  0  0  0
   -4.0610    0.7460   -1.3560 H   0  0  0  0  0  0
    1.0745   -1.0807   -2.0872 H   0  0  0  0  0  0
    1.5909   -0.8780    2.1959 H   0  0  0  0  0  0
   -3.3110   -1.4223    2.3034 H   0  0  0  0  0  0
    3.5045    2.5379    2.7667 H   0  0  0  0  0  0
    2.0813    1.6053    2.3338 H   0  0  0  0  0  0
    3.6867    1.0260    1.8715 H   0  0  0  0  0  0
    4.6819    3.8672    1.1118 H   0  0  0  0  0  0
    5.0033    2.4523    0.1017 H   0  0  0  0  0  0
    4.1756    3.8612   -0.5735 H   0  0  0  0  0  0
    3.0443   -2.8910    2.1131 H   0  0  0  0  0  0
    3.5200   -3.9986   -0.0573 H   0  0  0  0  0  0
    3.1370   -3.9829   -2.3337 H   0  0  0  0  0  0
   -7.1586   -0.4876    0.0908 H   0  0  0  0  0  0
   -6.1494    0.9046   -0.2822 H   0  0  0  0  0  0
   -5.9808   -0.6048   -1.2111 H   0  0  0  0  0  0
    2.9737    2.6654    0.7112 N   0  3  0  0  0  0
    2.3623    3.4511    0.8827 H   0  0  0  0  0  0
  1  9  1  0  0  0
  1 10  1  0  0  0
  2 17  1  0  0  0
  2 23  1  0  0  0
  3 20  1  0  0  0
  3 43  1  0  0  0
  4  5  2  0  0  0
  4  6  1  0  0  0
  4  7  1  0  0  0
  5  8  1  0  0  0
  5 11  1  0  0  0
  6  9  1  0  0  0
  6 24  1  0  0  0
  6 25  1  0  0  0
  7 26  1  0  0  0
  7 27  1  0  0  0
  7 47  1  0  0  0
  8 10  2  0  0  0
  8 12  1  0  0  0
  9 28  1  0  0  0
  9 29  1  0  0  0
 10 13  1  0  0  0
 11 14  2  0  0  0
 11 15  1  0  0  0
 12 16  2  0  0  0
 12 30  1  0  0  0
 13 17  2  0  0  0
 13 31  1  0  0  0
 14 20  1  0  0  0
 14 32  1  0  0  0
 15 21  2  0  0  0
 15 33  1  0  0  0
 16 17  1  0  0  0
 16 34  1  0  0  0
 18 35  1  0  0  0
 18 36  1  0  0  0
 18 37  1  0  0  0
 18 47  1  0  0  0
 19 38  1  0  0  0
 19 39  1  0  0  0
 19 40  1  0  0  0
 19 47  1  0  0  0
 20 22  2  0  0  0
 21 22  1  0  0  0
 21 41  1  0  0  0
 22 42  1  0  0  0
 23 44  1  0  0  0
 23 45  1  0  0  0
 23 46  1  0  0  0
 47 48  1  0  0  0
M  CHG  1  47   1
M  END
> <LID>
L018924

> <PC_CID>
19367726

> <Names>


> <CAS_Numbers>


$$$$
9839288
                    3D
 Structure written by MMmdl.
 45 46  0  0  1  0            999 V2000
    3.2506   -0.4288    0.1474 O   0  0  0  0  0  0
   -4.5525   -1.2074    0.3752 O   0  0  0  0  0  0
   -0.2073    1.2043    0.1879 C   0  0  0  0  0  0
    1.2980    0.9002    0.5169 C   0  0  1  0  0  0
    1.8978   -0.2761   -0.2723 C   0  0  2  0  0  0
   -1.0140   -0.1217    0.1820 C   0  0  0  0  0  0
   -0.7136    2.1359    1.3542 C   0  0  0  0  0  0
   -0.2731    1.9084   -1.2157 C   0  0  0  0  0  0
    1.1215   -1.5658    0.0030 C   0  0  0  0  0  0
   -0.3846   -1.3949    0.0707 C   0  0  0  0  0  0
   -2.4278   -0.0972    0.2918 C   0  0  0  0  0  0
   -1.7498    3.2397    1.0588 C   0  0  0  0  0  0
   -1.6030    1.8860   -1.9924 C   0  0  0  0  0  0
   -1.1580   -2.5757    0.0573 C   0  0  0  0  0  0
   -3.1936   -1.2770    0.2761 C   0  0  0  0  0  0
   -2.5576   -2.5222    0.1563 C   0  0  0  0  0  0
    4.0602   -1.2024   -0.7268 C   0  0  0  0  0  0
    5.4890   -1.2236   -0.1795 C   0  0  0  0  0  0
    1.3597    0.6198    1.5704 H   0  0  0  0  0  0
    1.8722   -0.0535   -1.3387 H   0  0  0  0  0  0
   -1.0641    1.5231    2.1861 H   0  0  0  0  0  0
    0.1258    2.6845    1.7793 H   0  0  0  0  0  0
    0.0720    2.9391   -1.1340 H   0  0  0  0  0  0
    0.4368    1.4382   -1.8923 H   0  0  0  0  0  0
    1.4358   -1.9762    0.9636 H   0  0  0  0  0  0
    1.3630   -2.3170   -0.7496 H   0  0  0  0  0  0
    3.1066    1.8478    0.6208 H   0  0  0  0  0  0
    2.1457    2.4009   -0.5992 H   0  0  0  0  0  0
   -2.9592    0.8333    0.3741 H   0  0  0  0  0  0
   -1.9294    3.8259    1.9603 H   0  0  0  0  0  0
   -1.4004    3.9388    0.2999 H   0  0  0  0  0  0
   -2.7187    2.8598    0.7478 H   0  0  0  0  0  0
   -1.5017    2.4380   -2.9270 H   0  0  0  0  0  0
   -1.8982    0.8708   -2.2578 H   0  0  0  0  0  0
   -2.4211    2.3440   -1.4412 H   0  0  0  0  0  0
   -0.6731   -3.5379   -0.0223 H   0  0  0  0  0  0
   -3.1345   -3.4353    0.1448 H   0  0  0  0  0  0
    3.6837   -2.2224   -0.8046 H   0  0  0  0  0  0
    4.0558   -0.7700   -1.7283 H   0  0  0  0  0  0
    6.1449   -1.8075   -0.8255 H   0  0  0  0  0  0
    5.8980   -0.2153   -0.1116 H   0  0  0  0  0  0
    5.5202   -1.6665    0.8163 H   0  0  0  0  0  0
   -4.9717   -2.0539    0.3543 H   0  0  0  0  0  0
    2.1607    2.0929    0.3624 N   0  3  0  0  0  0
    1.8276    2.8353    0.9605 H   0  0  0  0  0  0
  1  5  1  0  0  0
  1 17  1  0  0  0
  2 15  1  0  0  0
  2 43  1  0  0  0
  3  4  1  0  0  0
  3  6  1  0  0  0
  3  7  1  0  0  0
  3  8  1  0  0  0
  4  5  1  0  0  0
  4 19  1  0  0  0
  4 44  1  0  0  0
  5  9  1  0  0  0
  5 20  1  0  0  0
  6 10  2  0  0  0
  6 11  1  0  0  0
  7 12  1  0  0  0
  7 21  1  0  0  0
  7 22  1  0  0  0
  8 13  1  0  0  0
  8 23  1  0  0  0
  8 24  1  0  0  0
  9 10  1  0  0  0
  9 25  1  0  0  0
  9 26  1  0  0  0
 10 14  1  0  0  0
 11 15  2  0  0  0
 11 29  1  0  0  0
 12 30  1  0  0  0
 12 31  1  0  0  0
 12 32  1  0  0  0
 13 33  1  0  0  0
 13 34  1  0  0  0
 13 35  1  0  0  0
 14 16  2  0  0  0
 14 36  1  0  0  0
 15 16  1  0  0  0
 16 37  1  0  0  0
 17 18  1  0  0  0
 17 38  1  0  0  0
 17 39  1  0  0  0
 18 40  1  0  0  0
 18 41  1  0  0  0
 18 42  1  0  0  0
 27 44  1  0  0  0
 28 44  1  0  0  0
 44 45  1  0  0  0
M  CHG  1  44   1
M  END
> <LID>
L019837

> <PC_CID>
9839288

> <Names>


> <CAS_Numbers>


$$$$
22729911
                    3D
 Structure written by MMmdl.
 56 59  0  0  1  0            999 V2000
    2.0837    3.8703   -1.7831 O   0  0  0  0  0  0
    6.7521   -3.5516    0.1909 N   0  0  0  0  0  0
    0.6157   -0.2122    0.5652 C   0  0  0  0  0  0
   -0.1443   -0.7352    1.8226 C   0  0  0  0  0  0
   -0.3520   -0.5281   -0.6165 C   0  0  0  0  0  0
   -1.5672   -0.1561    1.9872 C   0  0  0  0  0  0
   -1.7418    0.1084   -0.4439 C   0  0  0  0  0  0
    0.9404    1.2991    0.6121 C   0  0  0  0  0  0
    1.9547   -0.9682    0.4517 C   0  0  0  0  0  0
   -3.7900    0.0940    0.9607 C   0  0  0  0  0  0
    1.3664    1.9595   -0.5660 C   0  0  0  0  0  0
    0.8864    2.0516    1.8109 C   0  0  0  0  0  0
    2.2889   -1.7702   -0.6688 C   0  0  0  0  0  0
    2.9038   -0.8502    1.4957 C   0  0  0  0  0  0
   -4.7377   -0.4746   -0.0808 C   0  0  0  0  0  0
    1.6904    3.3311   -0.5771 C   0  0  0  0  0  0
    1.2053    3.4215    1.8163 C   0  0  0  0  0  0
    3.5274   -2.4379   -0.7345 C   0  0  0  0  0  0
    4.1423   -1.5164    1.4319 C   0  0  0  0  0  0
    1.5997    4.0641    0.6299 C   0  0  0  0  0  0
    4.4571   -2.3141    0.3156 C   0  0  0  0  0  0
   -5.1530    0.3153   -1.1744 C   0  0  0  0  0  0
   -5.2101   -1.7985    0.0432 C   0  0  0  0  0  0
   -6.0295   -0.2176   -2.1395 C   0  0  0  0  0  0
   -6.0869   -2.3303   -0.9224 C   0  0  0  0  0  0
   -6.4961   -1.5404   -2.0141 C   0  0  0  0  0  0
    5.7349   -3.0031    0.2462 C   0  0  0  0  0  0
    2.4243    5.2485   -1.8204 C   0  0  0  0  0  0
   -0.2342   -1.8204    1.7485 H   0  0  0  0  0  0
    0.4241   -0.5684    2.7370 H   0  0  0  0  0  0
    0.0609   -0.2226   -1.5769 H   0  0  0  0  0  0
   -0.4966   -1.6071   -0.6933 H   0  0  0  0  0  0
   -1.5386    0.9141    2.1910 H   0  0  0  0  0  0
   -2.0403   -0.6212    2.8530 H   0  0  0  0  0  0
   -1.6695    1.1965   -0.4083 H   0  0  0  0  0  0
   -2.3456   -0.1370   -1.3174 H   0  0  0  0  0  0
   -4.1638   -0.1988    1.9431 H   0  0  0  0  0  0
   -3.8064    1.1849    0.9361 H   0  0  0  0  0  0
    1.4651    1.4123   -1.4908 H   0  0  0  0  0  0
    0.6083    1.6018    2.7504 H   0  0  0  0  0  0
    1.6150   -1.8924   -1.5019 H   0  0  0  0  0  0
    2.6896   -0.2376    2.3588 H   0  0  0  0  0  0
    1.1526    3.9819    2.7381 H   0  0  0  0  0  0
    3.7589   -3.0443   -1.5987 H   0  0  0  0  0  0
    4.8478   -1.4084    2.2435 H   0  0  0  0  0  0
    1.8377    5.1160    0.6745 H   0  0  0  0  0  0
   -4.7996    1.3308   -1.2792 H   0  0  0  0  0  0
   -4.9021   -2.4110    0.8781 H   0  0  0  0  0  0
   -6.3446    0.3885   -2.9763 H   0  0  0  0  0  0
   -6.4465   -3.3442   -0.8255 H   0  0  0  0  0  0
   -7.1688   -1.9485   -2.7542 H   0  0  0  0  0  0
    2.7139    5.5200   -2.8355 H   0  0  0  0  0  0
    1.5774    5.8764   -1.5404 H   0  0  0  0  0  0
    3.2696    5.4684   -1.1669 H   0  0  0  0  0  0
   -2.4009   -0.3991    0.7856 N   0  3  0  0  0  0
   -2.4686   -1.4019    0.6844 H   0  0  0  0  0  0
  1 16  1  0  0  0
  1 28  1  0  0  0
  2 27  3  0  0  0
  3  4  1  0  0  0
  3  5  1  0  0  0
  3  8  1  0  0  0
  3  9  1  0  0  0
  4  6  1  0  0  0
  4 29  1  0  0  0
  4 30  1  0  0  0
  5  7  1  0  0  0
  5 31  1  0  0  0
  5 32  1  0  0  0
  6 33  1  0  0  0
  6 34  1  0  0  0
  6 55  1  0  0  0
  7 35  1  0  0  0
  7 36  1  0  0  0
  7 55  1  0  0  0
  8 11  2  0  0  0
  8 12  1  0  0  0
  9 13  2  0  0  0
  9 14  1  0  0  0
 10 15  1  0  0  0
 10 37  1  0  0  0
 10 38  1  0  0  0
 10 55  1  0  0  0
 11 16  1  0  0  0
 11 39  1  0  0  0
 12 17  2  0  0  0
 12 40  1  0  0  0
 13 18  1  0  0  0
 13 41  1  0  0  0
 14 19  2  0  0  0
 14 42  1  0  0  0
 15 22  2  0  0  0
 15 23  1  0  0  0
 16 20  2  0  0  0
 17 20  1  0  0  0
 17 43  1  0  0  0
 18 21  2  0  0  0
 18 44  1  0  0  0
 19 21  1  0  0  0
 19 45  1  0  0  0
 20 46  1  0  0  0
 21 27  1  0  0  0
 22 24  1  0  0  0
 22 47  1  0  0  0
 23 25  2  0  0  0
 23 48  1  0  0  0
 24 26  2  0  0  0
 24 49  1  0  0  0
 25 26  1  0  0  0
 25 50  1  0  0  0
 26 51  1  0  0  0
 28 52  1  0  0  0
 28 53  1  0  0  0
 28 54  1  0  0  0
 55 56  1  0  0  0
M  CHG  1  55   1
M  END
> <LID>
L019574

> <PC_CID>
22729911

> <Names>


> <CAS_Numbers>


$$$$
9802297
                    3D
 Structure written by MMmdl.
 59 63  0  0  1  0            999 V2000
    4.7882    0.8064    1.6906 O   0  0  0  0  0  0
    2.8761   -0.1987    0.9688 N   0  0  0  0  0  0
   -1.7631   -1.2396    0.3338 N   0  0  0  0  0  0
   -0.7044   -1.3622    2.2912 N   0  0  0  0  0  0
   -0.0333    0.5863    0.8410 C   0  0  0  0  0  0
    0.9303    0.9753    2.0060 C   0  0  0  0  0  0
    0.8949    0.3494   -0.3874 C   0  0  0  0  0  0
    2.1349    0.0287    2.2165 C   0  0  0  0  0  0
    2.0126   -0.6737   -0.1230 C   0  0  0  0  0  0
   -0.8375   -0.6759    1.1553 C   0  0  0  0  0  0
   -1.0102    1.7677    0.6626 C   0  0  0  0  0  0
   -1.0165    2.5924   -0.4910 C   0  0  0  0  0  0
   -1.9369    2.0539    1.6947 C   0  0  0  0  0  0
    4.1835    0.1480    0.8435 C   0  0  0  0  0  0
   -2.2096   -0.8420   -0.9982 C   0  0  0  0  0  0
   -2.2172   -2.3804    0.9893 C   0  0  0  0  0  0
   -1.5712   -2.4387    2.1952 C   0  0  0  0  0  0
   -1.9272    3.6604   -0.6076 C   0  0  0  0  0  0
   -2.8447    3.1236    1.5802 C   0  0  0  0  0  0
    4.9403   -0.3120   -0.3706 C   0  0  0  0  0  0
   -3.7239   -0.8500   -1.1194 C   0  0  0  0  0  0
   -2.8417    3.9277    0.4268 C   0  0  0  0  0  0
    5.6569    0.6247   -1.1471 C   0  0  0  0  0  0
    5.0039   -1.6838   -0.7079 C   0  0  0  0  0  0
   -4.3813   -1.9123   -1.7758 C   0  0  0  0  0  0
   -4.4809    0.2103   -0.5784 C   0  0  0  0  0  0
    6.3978    0.2011   -2.2677 C   0  0  0  0  0  0
    5.7447   -2.1064   -1.8288 C   0  0  0  0  0  0
   -5.7857   -1.9155   -1.8851 C   0  0  0  0  0  0
   -5.8848    0.2071   -0.6880 C   0  0  0  0  0  0
    6.4390   -1.1638   -2.6109 C   0  0  0  0  0  0
   -6.5376   -0.8563   -1.3410 C   0  0  0  0  0  0
    1.3374    1.9669    1.8007 H   0  0  0  0  0  0
    0.3853    1.0765    2.9452 H   0  0  0  0  0  0
    0.3353    0.0447   -1.2690 H   0  0  0  0  0  0
    1.3921    1.2817   -0.6584 H   0  0  0  0  0  0
    1.8120   -0.9413    2.5913 H   0  0  0  0  0  0
    2.7627    0.4354    3.0103 H   0  0  0  0  0  0
    2.5433   -0.8280   -1.0606 H   0  0  0  0  0  0
    1.5940   -1.6442    0.1465 H   0  0  0  0  0  0
   -0.3394    2.4227   -1.3130 H   0  0  0  0  0  0
   -1.9589    1.4463    2.5877 H   0  0  0  0  0  0
   -1.8616    0.1547   -1.2485 H   0  0  0  0  0  0
   -1.7674   -1.5229   -1.7262 H   0  0  0  0  0  0
   -2.9534   -3.0408    0.5553 H   0  0  0  0  0  0
   -1.6551   -3.1673    2.9881 H   0  0  0  0  0  0
   -1.9236    4.2763   -1.4948 H   0  0  0  0  0  0
   -3.5452    3.3248    2.3772 H   0  0  0  0  0  0
   -3.5390    4.7475    0.3357 H   0  0  0  0  0  0
    5.6376    1.6738   -0.8885 H   0  0  0  0  0  0
    4.4833   -2.4172   -0.1089 H   0  0  0  0  0  0
   -3.8115   -2.7291   -2.1943 H   0  0  0  0  0  0
   -3.9860    1.0284   -0.0775 H   0  0  0  0  0  0
    6.9375    0.9235   -2.8621 H   0  0  0  0  0  0
    5.7837   -3.1547   -2.0859 H   0  0  0  0  0  0
   -6.2862   -2.7309   -2.3864 H   0  0  0  0  0  0
   -6.4603    1.0205   -0.2712 H   0  0  0  0  0  0
    7.0084   -1.4883   -3.4694 H   0  0  0  0  0  0
   -7.6144   -0.8590   -1.4250 H   0  0  0  0  0  0
  1 14  2  0  0  0
  2  8  1  0  0  0
  2  9  1  0  0  0
  2 14  1  0  0  0
  3 10  1  0  0  0
  3 15  1  0  0  0
  3 16  1  0  0  0
  4 10  2  0  0  0
  4 17  1  0  0  0
  5  6  1  0  0  0
  5  7  1  0  0  0
  5 10  1  0  0  0
  5 11  1  0  0  0
  6  8  1  0  0  0
  6 33  1  0  0  0
  6 34  1  0  0  0
  7  9  1  0  0  0
  7 35  1  0  0  0
  7 36  1  0  0  0
  8 37  1  0  0  0
  8 38  1  0  0  0
  9 39  1  0  0  0
  9 40  1  0  0  0
 11 12  2  0  0  0
 11 13  1  0  0  0
 12 18  1  0  0  0
 12 41  1  0  0  0
 13 19  2  0  0  0
 13 42  1  0  0  0
 14 20  1  0  0  0
 15 21  1  0  0  0
 15 43  1  0  0  0
 15 44  1  0  0  0
 16 17  2  0  0  0
 16 45  1  0  0  0
 17 46  1  0  0  0
 18 22  2  0  0  0
 18 47  1  0  0  0
 19 22  1  0  0  0
 19 48  1  0  0  0
 20 23  2  0  0  0
 20 24  1  0  0  0
 21 25  2  0  0  0
 21 26  1  0  0  0
 22 49  1  0  0  0
 23 27  1  0  0  0
 23 50  1  0  0  0
 24 28  2  0  0  0
 24 51  1  0  0  0
 25 29  1  0  0  0
 25 52  1  0  0  0
 26 30  2  0  0  0
 26 53  1  0  0  0
 27 31  2  0  0  0
 27 54  1  0  0  0
 28 31  1  0  0  0
 28 55  1  0  0  0
 29 32  2  0  0  0
 29 56  1  0  0  0
 30 32  1  0  0  0
 30 57  1  0  0  0
 31 58  1  0  0  0
 32 59  1  0  0  0
M  END
> <LID>
L022159

> <PC_CID>
9802297

> <Names>


> <CAS_Numbers>


$$$$
44213468
                    3D
 Structure written by MMmdl.
 47 48  0  0  1  0            999 V2000
    6.3071    1.5694   -2.1056 O   0  0  0  0  0  0
   -5.3738   -0.9966   -0.0061 O   0  0  0  0  0  0
   -5.1494   -0.1277   -2.0970 O   0  0  0  0  0  0
    1.8886    0.3201   -0.2994 C   0  0  1  0  0  0
    0.7886    1.0573    0.5159 C   0  0  0  0  0  0
    3.2840    0.9067   -0.0924 C   0  0  0  0  0  0
   -0.6359    0.6853    0.1389 C   0  0  0  0  0  0
    1.9204   -1.6327    1.2925 C   0  0  0  0  0  0
    1.0139   -1.9256   -0.9790 C   0  0  0  0  0  0
    4.1694    0.9789   -1.1910 C   0  0  0  0  0  0
    3.7200    1.3704    1.1710 C   0  0  0  0  0  0
   -1.4738    0.0346    1.0676 C   0  0  0  0  0  0
   -1.1346    0.9976   -1.1422 C   0  0  0  0  0  0
    5.4653    1.5077   -1.0339 C   0  0  0  0  0  0
    5.0157    1.8995    1.3281 C   0  0  0  0  0  0
   -2.7909   -0.3161    0.7138 C   0  0  0  0  0  0
   -2.4512    0.6471   -1.4969 C   0  0  0  0  0  0
   -3.2940   -0.0154   -0.5752 C   0  0  0  0  0  0
    5.8891    1.9695    0.2267 C   0  0  0  0  0  0
   -4.6833   -0.3742   -0.9827 C   0  0  0  0  0  0
   -6.7133   -1.4035   -0.2342 C   0  0  0  0  0  0
   -7.2578   -2.0781    1.0272 C   0  0  0  0  0  0
    1.6698    0.5042   -1.3523 H   0  0  0  0  0  0
    0.9240    0.9165    1.5881 H   0  0  0  0  0  0
    0.8855    2.1308    0.3479 H   0  0  0  0  0  0
    2.1471   -2.6984    1.3355 H   0  0  0  0  0  0
    2.6665   -1.1189    1.8975 H   0  0  0  0  0  0
    0.9430   -1.4849    1.7508 H   0  0  0  0  0  0
    1.2567   -2.9881   -0.9450 H   0  0  0  0  0  0
   -0.0225   -1.8156   -0.6626 H   0  0  0  0  0  0
    1.0921   -1.6079   -2.0192 H   0  0  0  0  0  0
    3.8577    0.6269   -2.1639 H   0  0  0  0  0  0
    3.0735    1.3238    2.0340 H   0  0  0  0  0  0
   -1.1119   -0.2021    2.0574 H   0  0  0  0  0  0
   -0.5087    1.5062   -1.8609 H   0  0  0  0  0  0
    5.3407    2.2515    2.2962 H   0  0  0  0  0  0
   -3.4027   -0.8170    1.4499 H   0  0  0  0  0  0
   -2.8071    0.8949   -2.4868 H   0  0  0  0  0  0
    6.8817    2.3762    0.3546 H   0  0  0  0  0  0
    7.1492    1.9446   -1.8981 H   0  0  0  0  0  0
   -7.3255   -0.5377   -0.4900 H   0  0  0  0  0  0
   -6.7522   -2.0962   -1.0761 H   0  0  0  0  0  0
   -8.2882   -2.4015    0.8795 H   0  0  0  0  0  0
   -6.6663   -2.9557    1.2893 H   0  0  0  0  0  0
   -7.2405   -1.3944    1.8762 H   0  0  0  0  0  0
    1.9425   -1.1618   -0.1128 N   0  3  0  0  0  0
    2.8589   -1.4118   -0.4572 H   0  0  0  0  0  0
  1 14  1  0  0  0
  1 40  1  0  0  0
  2 20  1  0  0  0
  2 21  1  0  0  0
  3 20  2  0  0  0
  4  5  1  0  0  0
  4  6  1  0  0  0
  4 23  1  0  0  0
  4 46  1  0  0  0
  5  7  1  0  0  0
  5 24  1  0  0  0
  5 25  1  0  0  0
  6 10  2  0  0  0
  6 11  1  0  0  0
  7 12  2  0  0  0
  7 13  1  0  0  0
  8 26  1  0  0  0
  8 27  1  0  0  0
  8 28  1  0  0  0
  8 46  1  0  0  0
  9 29  1  0  0  0
  9 30  1  0  0  0
  9 31  1  0  0  0
  9 46  1  0  0  0
 10 14  1  0  0  0
 10 32  1  0  0  0
 11 15  2  0  0  0
 11 33  1  0  0  0
 12 16  1  0  0  0
 12 34  1  0  0  0
 13 17  2  0  0  0
 13 35  1  0  0  0
 14 19  2  0  0  0
 15 19  1  0  0  0
 15 36  1  0  0  0
 16 18  2  0  0  0
 16 37  1  0  0  0
 17 18  1  0  0  0
 17 38  1  0  0  0
 18 20  1  0  0  0
 19 39  1  0  0  0
 21 22  1  0  0  0
 21 41  1  0  0  0
 21 42  1  0  0  0
 22 43  1  0  0  0
 22 44  1  0  0  0
 22 45  1  0  0  0
 46 47  1  0  0  0
M  CHG  1  46   1
M  END
> <LID>
L015216

> <PC_CID>
44213468

> <Names>


> <CAS_Numbers>


$$$$
44213464
                    3D
 Structure written by MMmdl.
 48 49  0  0  1  0            999 V2000
   -4.1428    0.0922   -0.4430 O   0  0  0  0  0  0
    2.1384    3.4520    1.2108 O   0  0  0  0  0  0
    2.1936   -1.3286   -0.1284 C   0  0  1  0  0  0
    1.1249   -1.7394    0.9152 C   0  0  0  0  0  0
    2.2063    0.1649   -0.4682 C   0  0  0  0  0  0
   -0.2720   -1.2368    0.5841 C   0  0  0  0  0  0
    4.4306   -1.9836   -0.9833 C   0  0  0  0  0  0
    4.2336   -1.2377    1.3424 C   0  0  0  0  0  0
    2.1721    1.1476    0.5477 C   0  0  0  0  0  0
    2.2400    0.5759   -1.8192 C   0  0  0  0  0  0
   -0.9887   -1.8003   -0.4902 C   0  0  0  0  0  0
   -0.8634   -0.2074    1.3447 C   0  0  0  0  0  0
   -2.8780   -0.3000   -0.0529 C   0  0  0  0  0  0
   -2.2787   -1.3319   -0.8035 C   0  0  0  0  0  0
   -2.1534    0.2610    1.0290 C   0  0  0  0  0  0
    2.1726    2.5166    0.2185 C   0  0  0  0  0  0
    2.2418    1.9449   -2.1492 C   0  0  0  0  0  0
    2.2078    2.9163   -1.1312 C   0  0  0  0  0  0
   -4.8437    1.0874    0.2990 C   0  0  0  0  0  0
   -5.9472    1.6266   -0.6188 C   0  0  0  0  0  0
   -5.4379    0.4815    1.5824 C   0  0  0  0  0  0
    1.8836   -1.8369   -1.0430 H   0  0  0  0  0  0
    1.3899   -1.3725    1.9063 H   0  0  0  0  0  0
    1.0891   -2.8262    1.0011 H   0  0  0  0  0  0
    5.3515   -2.5079   -0.7258 H   0  0  0  0  0  0
    3.9510   -2.5420   -1.7880 H   0  0  0  0  0  0
    4.7000   -0.9975   -1.3637 H   0  0  0  0  0  0
    5.1314   -1.7996    1.6021 H   0  0  0  0  0  0
    4.5416   -0.2194    1.1032 H   0  0  0  0  0  0
    3.6056   -1.2080    2.2318 H   0  0  0  0  0  0
    2.1433    0.8569    1.5873 H   0  0  0  0  0  0
    2.2632   -0.1575   -2.6121 H   0  0  0  0  0  0
   -0.5518   -2.5924   -1.0805 H   0  0  0  0  0  0
   -0.3283    0.2348    2.1723 H   0  0  0  0  0  0
   -2.8167   -1.7701   -1.6314 H   0  0  0  0  0  0
   -2.5623    1.0517    1.6380 H   0  0  0  0  0  0
    2.2672    2.2502   -3.1850 H   0  0  0  0  0  0
    2.2081    3.9649   -1.3908 H   0  0  0  0  0  0
   -4.1913    1.9271    0.5390 H   0  0  0  0  0  0
   -6.5258    2.4063   -0.1229 H   0  0  0  0  0  0
   -5.5231    2.0561   -1.5268 H   0  0  0  0  0  0
   -6.6366    0.8357   -0.9160 H   0  0  0  0  0  0
   -6.0050    1.2278    2.1393 H   0  0  0  0  0  0
   -6.1125   -0.3429    1.3500 H   0  0  0  0  0  0
   -4.6664    0.0956    2.2478 H   0  0  0  0  0  0
    2.1348    4.3397    0.8868 H   0  0  0  0  0  0
    3.5424   -1.8804    0.1983 N   0  3  0  0  0  0
    3.3728   -2.8345    0.4837 H   0  0  0  0  0  0
  1 13  1  0  0  0
  1 19  1  0  0  0
  2 16  1  0  0  0
  2 46  1  0  0  0
  3  4  1  0  0  0
  3  5  1  0  0  0
  3 22  1  0  0  0
  3 47  1  0  0  0
  4  6  1  0  0  0
  4 23  1  0  0  0
  4 24  1  0  0  0
  5  9  2  0  0  0
  5 10  1  0  0  0
  6 11  2  0  0  0
  6 12  1  0  0  0
  7 25  1  0  0  0
  7 26  1  0  0  0
  7 27  1  0  0  0
  7 47  1  0  0  0
  8 28  1  0  0  0
  8 29  1  0  0  0
  8 30  1  0  0  0
  8 47  1  0  0  0
  9 16  1  0  0  0
  9 31  1  0  0  0
 10 17  2  0  0  0
 10 32  1  0  0  0
 11 14  1  0  0  0
 11 33  1  0  0  0
 12 15  2  0  0  0
 12 34  1  0  0  0
 13 14  2  0  0  0
 13 15  1  0  0  0
 14 35  1  0  0  0
 15 36  1  0  0  0
 16 18  2  0  0  0
 17 18  1  0  0  0
 17 37  1  0  0  0
 18 38  1  0  0  0
 19 20  1  0  0  0
 19 21  1  0  0  0
 19 39  1  0  0  0
 20 40  1  0  0  0
 20 41  1  0  0  0
 20 42  1  0  0  0
 21 43  1  0  0  0
 21 44  1  0  0  0
 21 45  1  0  0  0
 47 48  1  0  0  0
M  CHG  1  47   1
M  END
> <LID>
L015212

> <PC_CID>
44213464

> <Names>


> <CAS_Numbers>


$$$$
44213465
                    3D
 Structure written by MMmdl.
 55 57  0  0  1  0            999 V2000
   -6.9639   -3.1123    1.9744 O   0  0  0  0  0  0
    3.6625    2.5986    0.0091 O   0  0  0  0  0  0
    3.7888    0.7657    1.3376 N   0  0  0  0  0  0
   -3.1125   -0.6342    0.1382 C   0  0  1  0  0  0
   -2.6648    0.8550    0.1390 C   0  0  0  0  0  0
   -4.6228   -0.8072    0.2901 C   0  0  0  0  0  0
   -1.1647    1.0655    0.2623 C   0  0  0  0  0  0
   -2.8304   -0.8367   -2.3575 C   0  0  0  0  0  0
   -1.2797   -2.0217   -0.8547 C   0  0  0  0  0  0
   -5.1175   -1.8791    1.0662 C   0  0  0  0  0  0
   -5.5420    0.0692   -0.3332 C   0  0  0  0  0  0
   -0.4361    1.6465   -0.7962 C   0  0  0  0  0  0
   -0.4918    0.6940    1.4447 C   0  0  0  0  0  0
    1.6368    1.4436    0.4925 C   0  0  0  0  0  0
    0.9545    1.8345   -0.6808 C   0  0  0  0  0  0
    0.8989    0.8824    1.5606 C   0  0  0  0  0  0
   -6.5040   -2.0717    1.2217 C   0  0  0  0  0  0
   -6.9284   -0.1232   -0.1775 C   0  0  0  0  0  0
   -7.4109   -1.1925    0.5999 C   0  0  0  0  0  0
    3.1177    1.6703    0.6067 C   0  0  0  0  0  0
    5.2346    0.7626    1.5372 C   0  0  0  0  0  0
    6.0271    0.2019    0.3637 C   0  0  0  0  0  0
    7.3022    0.7313    0.0713 C   0  0  0  0  0  0
    5.5177   -0.8534   -0.4268 C   0  0  0  0  0  0
    8.0549    0.2220   -1.0049 C   0  0  0  0  0  0
    6.2707   -1.3622   -1.5030 C   0  0  0  0  0  0
    7.5388   -0.8240   -1.7932 C   0  0  0  0  0  0
   -2.6951   -1.0837    1.0404 H   0  0  0  0  0  0
   -3.0297    1.3826   -0.7419 H   0  0  0  0  0  0
   -3.1217    1.3596    0.9915 H   0  0  0  0  0  0
   -2.1604    0.0079   -2.5148 H   0  0  0  0  0  0
   -2.6269   -1.5692   -3.1392 H   0  0  0  0  0  0
   -3.8554   -0.4942   -2.4945 H   0  0  0  0  0  0
   -1.0885   -2.7648   -1.6295 H   0  0  0  0  0  0
   -0.5032   -1.2617   -0.9301 H   0  0  0  0  0  0
   -1.1785   -2.5233    0.1082 H   0  0  0  0  0  0
   -4.4327   -2.5623    1.5478 H   0  0  0  0  0  0
   -5.2003    0.8941   -0.9395 H   0  0  0  0  0  0
   -0.9376    1.9515   -1.7029 H   0  0  0  0  0  0
   -1.0403    0.2644    2.2703 H   0  0  0  0  0  0
    1.4955    2.2804   -1.5034 H   0  0  0  0  0  0
    1.3877    0.5975    2.4810 H   0  0  0  0  0  0
   -7.6234    0.5507   -0.6567 H   0  0  0  0  0  0
   -8.4757   -1.3342    0.7147 H   0  0  0  0  0  0
    3.2638    0.0212    1.7718 H   0  0  0  0  0  0
    5.5746    1.7740    1.7676 H   0  0  0  0  0  0
    5.4549    0.1571    2.4165 H   0  0  0  0  0  0
   -7.9069   -3.1514    2.0212 H   0  0  0  0  0  0
    7.7078    1.5332    0.6707 H   0  0  0  0  0  0
    4.5489   -1.2802   -0.2134 H   0  0  0  0  0  0
    9.0287    0.6340   -1.2251 H   0  0  0  0  0  0
    5.8756   -2.1671   -2.1051 H   0  0  0  0  0  0
    8.1161   -1.2146   -2.6183 H   0  0  0  0  0  0
   -2.6359   -1.4480   -1.0213 N   0  3  0  0  0  0
   -3.2447   -2.2543   -1.0124 H   0  0  0  0  0  0
  1 17  1  0  0  0
  1 48  1  0  0  0
  2 20  2  0  0  0
  3 20  1  0  0  0
  3 21  1  0  0  0
  3 45  1  0  0  0
  4  5  1  0  0  0
  4  6  1  0  0  0
  4 28  1  0  0  0
  4 54  1  0  0  0
  5  7  1  0  0  0
  5 29  1  0  0  0
  5 30  1  0  0  0
  6 10  2  0  0  0
  6 11  1  0  0  0
  7 12  2  0  0  0
  7 13  1  0  0  0
  8 31  1  0  0  0
  8 32  1  0  0  0
  8 33  1  0  0  0
  8 54  1  0  0  0
  9 34  1  0  0  0
  9 35  1  0  0  0
  9 36  1  0  0  0
  9 54  1  0  0  0
 10 17  1  0  0  0
 10 37  1  0  0  0
 11 18  2  0  0  0
 11 38  1  0  0  0
 12 15  1  0  0  0
 12 39  1  0  0  0
 13 16  2  0  0  0
 13 40  1  0  0  0
 14 15  2  0  0  0
 14 16  1  0  0  0
 14 20  1  0  0  0
 15 41  1  0  0  0
 16 42  1  0  0  0
 17 19  2  0  0  0
 18 19  1  0  0  0
 18 43  1  0  0  0
 19 44  1  0  0  0
 21 22  1  0  0  0
 21 46  1  0  0  0
 21 47  1  0  0  0
 22 23  2  0  0  0
 22 24  1  0  0  0
 23 25  1  0  0  0
 23 49  1  0  0  0
 24 26  2  0  0  0
 24 50  1  0  0  0
 25 27  2  0  0  0
 25 51  1  0  0  0
 26 27  1  0  0  0
 26 52  1  0  0  0
 27 53  1  0  0  0
 54 55  1  0  0  0
M  CHG  1  54   1
M  END
> <LID>
L015213

> <PC_CID>
44213465

> <Names>


> <CAS_Numbers>


$$$$
44213466
                    3D
 Structure written by MMmdl.
 44 46  0  0  1  0            999 V2000
   -3.3338    1.7597   -2.6449 F   0  0  0  0  0  0
    5.9272   -1.7895    2.2956 O   0  0  0  0  0  0
    1.6282   -0.1545    0.5093 C   0  0  1  0  0  0
    0.3715   -0.8274   -0.1119 C   0  0  0  0  0  0
    2.8988   -0.9862    0.3426 C   0  0  0  0  0  0
   -0.9479   -0.1732    0.2639 C   0  0  0  0  0  0
   -1.7347    0.4607   -0.7213 C   0  0  0  0  0  0
   -1.3968   -0.2045    1.6009 C   0  0  0  0  0  0
   -2.9549    1.0776   -0.3724 C   0  0  0  0  0  0
    1.8410    1.4775   -1.3990 C   0  0  0  0  0  0
    1.1575    2.2847    0.8256 C   0  0  0  0  0  0
    3.8422   -1.0187    1.3937 C   0  0  0  0  0  0
    3.1639   -1.7172   -0.8393 C   0  0  0  0  0  0
   -3.3952    1.0504    0.9750 C   0  0  0  0  0  0
   -2.6141    0.4068    1.9560 C   0  0  0  0  0  0
    5.0272   -1.7699    1.2707 C   0  0  0  0  0  0
    4.3487   -2.4685   -0.9623 C   0  0  0  0  0  0
   -3.7409    1.7223   -1.3529 C   0  0  0  0  0  0
   -4.6138    1.6654    1.3296 C   0  0  0  0  0  0
    5.2808   -2.4965    0.0917 C   0  0  0  0  0  0
   -4.9567    2.3345   -0.9912 C   0  0  0  0  0  0
   -5.3929    2.3064    0.3473 C   0  0  0  0  0  0
    1.4623   -0.1243    1.5872 H   0  0  0  0  0  0
    0.4459   -0.8879   -1.1975 H   0  0  0  0  0  0
    0.3175   -1.8604    0.2347 H   0  0  0  0  0  0
   -1.3991    0.4768   -1.7480 H   0  0  0  0  0  0
   -0.8079   -0.6965    2.3613 H   0  0  0  0  0  0
    2.2248    2.4699   -1.6375 H   0  0  0  0  0  0
    2.4534    0.7560   -1.9386 H   0  0  0  0  0  0
    0.8219    1.4183   -1.7798 H   0  0  0  0  0  0
    1.5563    3.2731    0.5953 H   0  0  0  0  0  0
    0.0962    2.2942    0.5815 H   0  0  0  0  0  0
    1.2626    2.1348    1.9006 H   0  0  0  0  0  0
    3.6610   -0.4647    2.3035 H   0  0  0  0  0  0
    2.4696   -1.7094   -1.6656 H   0  0  0  0  0  0
   -2.9448    0.3782    2.9843 H   0  0  0  0  0  0
    4.5434   -3.0240   -1.8681 H   0  0  0  0  0  0
   -4.9564    1.6481    2.3542 H   0  0  0  0  0  0
    6.1877   -3.0747   -0.0096 H   0  0  0  0  0  0
   -5.5558    2.8269   -1.7430 H   0  0  0  0  0  0
   -6.3260    2.7767    0.6207 H   0  0  0  0  0  0
    6.6847   -2.3257    2.1174 H   0  0  0  0  0  0
    1.8931    1.2476    0.0644 N   0  3  0  0  0  0
    2.8595    1.3987    0.3175 H   0  0  0  0  0  0
  1 18  1  0  0  0
  2 16  1  0  0  0
  2 42  1  0  0  0
  3  4  1  0  0  0
  3  5  1  0  0  0
  3 23  1  0  0  0
  3 43  1  0  0  0
  4  6  1  0  0  0
  4 24  1  0  0  0
  4 25  1  0  0  0
  5 12  2  0  0  0
  5 13  1  0  0  0
  6  7  2  0  0  0
  6  8  1  0  0  0
  7  9  1  0  0  0
  7 26  1  0  0  0
  8 15  2  0  0  0
  8 27  1  0  0  0
  9 14  2  0  0  0
  9 18  1  0  0  0
 10 28  1  0  0  0
 10 29  1  0  0  0
 10 30  1  0  0  0
 10 43  1  0  0  0
 11 31  1  0  0  0
 11 32  1  0  0  0
 11 33  1  0  0  0
 11 43  1  0  0  0
 12 16  1  0  0  0
 12 34  1  0  0  0
 13 17  2  0  0  0
 13 35  1  0  0  0
 14 15  1  0  0  0
 14 19  1  0  0  0
 15 36  1  0  0  0
 16 20  2  0  0  0
 17 20  1  0  0  0
 17 37  1  0  0  0
 18 21  2  0  0  0
 19 22  2  0  0  0
 19 38  1  0  0  0
 20 39  1  0  0  0
 21 22  1  0  0  0
 21 40  1  0  0  0
 22 41  1  0  0  0
 43 44  1  0  0  0
M  CHG  1  43   1
M  END
> <LID>
L015214

> <PC_CID>
44213466

> <Names>


> <CAS_Numbers>


$$$$
44213467
                    3D
 Structure written by MMmdl.
 48 49  0  0  1  0            999 V2000
   -4.5987    0.8542    0.1964 O   0  0  0  0  0  0
    1.7737    3.2970    1.4451 O   0  0  0  0  0  0
    2.2465   -1.3623   -0.2035 C   0  0  1  0  0  0
    1.2781   -1.9449    0.8560 C   0  0  0  0  0  0
    2.0903    0.1421   -0.4457 C   0  0  0  0  0  0
   -0.1772   -1.5718    0.6184 C   0  0  0  0  0  0
    4.4936   -1.7259   -1.1946 C   0  0  0  0  0  0
    4.3368   -1.1478    1.1814 C   0  0  0  0  0  0
    2.0079    1.0529    0.6325 C   0  0  0  0  0  0
    2.0136    0.6349   -1.7673 C   0  0  0  0  0  0
   -0.8855   -2.1454   -0.4583 C   0  0  0  0  0  0
   -0.8305   -0.6560    1.4703 C   0  0  0  0  0  0
   -2.8785   -0.8701    0.1534 C   0  0  0  0  0  0
   -2.2306   -1.7977   -0.6885 C   0  0  0  0  0  0
   -2.1751   -0.3078    1.2393 C   0  0  0  0  0  0
    1.8524    2.4318    0.3935 C   0  0  0  0  0  0
    1.8593    2.0139   -2.0072 C   0  0  0  0  0  0
   -4.3327   -0.5105   -0.0872 C   0  0  0  0  0  0
    1.7783    2.9134   -0.9276 C   0  0  0  0  0  0
   -5.9575    1.2033   -0.0068 C   0  0  0  0  0  0
   -6.1427    2.6854    0.3263 C   0  0  0  0  0  0
    1.9450   -1.8441   -1.1351 H   0  0  0  0  0  0
    1.5529   -1.6126    1.8566 H   0  0  0  0  0  0
    1.3573   -3.0326    0.8724 H   0  0  0  0  0  0
    5.4747   -2.1655   -1.0117 H   0  0  0  0  0  0
    4.0343   -2.2814   -2.0129 H   0  0  0  0  0  0
    4.6420   -0.6956   -1.5205 H   0  0  0  0  0  0
    5.2988   -1.6273    1.3651 H   0  0  0  0  0  0
    4.5273   -0.0902    0.9967 H   0  0  0  0  0  0
    3.7538   -1.2382    2.0970 H   0  0  0  0  0  0
    2.0613    0.6988    1.6513 H   0  0  0  0  0  0
    2.0711   -0.0429   -2.6065 H   0  0  0  0  0  0
   -0.3995   -2.8539   -1.1130 H   0  0  0  0  0  0
   -0.3036   -0.2118    2.3022 H   0  0  0  0  0  0
   -2.7627   -2.2449   -1.5154 H   0  0  0  0  0  0
   -2.6648    0.3943    1.8983 H   0  0  0  0  0  0
    1.8010    2.3820   -3.0210 H   0  0  0  0  0  0
   -4.9521   -1.1502    0.5432 H   0  0  0  0  0  0
   -4.5925   -0.7253   -1.1252 H   0  0  0  0  0  0
    1.6586    3.9700   -1.1181 H   0  0  0  0  0  0
    1.6600    4.1969    1.1800 H   0  0  0  0  0  0
   -6.2442    1.0162   -1.0427 H   0  0  0  0  0  0
   -6.6021    0.5958    0.6302 H   0  0  0  0  0  0
   -7.1791    2.9909    0.1814 H   0  0  0  0  0  0
   -5.8752    2.8895    1.3633 H   0  0  0  0  0  0
   -5.5171    3.3106   -0.3111 H   0  0  0  0  0  0
    3.6590   -1.7885    0.0282 N   0  3  0  0  0  0
    3.6018   -2.7707    0.2574 H   0  0  0  0  0  0
  1 18  1  0  0  0
  1 20  1  0  0  0
  2 16  1  0  0  0
  2 41  1  0  0  0
  3  4  1  0  0  0
  3  5  1  0  0  0
  3 22  1  0  0  0
  3 47  1  0  0  0
  4  6  1  0  0  0
  4 23  1  0  0  0
  4 24  1  0  0  0
  5  9  2  0  0  0
  5 10  1  0  0  0
  6 11  2  0  0  0
  6 12  1  0  0  0
  7 25  1  0  0  0
  7 26  1  0  0  0
  7 27  1  0  0  0
  7 47  1  0  0  0
  8 28  1  0  0  0
  8 29  1  0  0  0
  8 30  1  0  0  0
  8 47  1  0  0  0
  9 16  1  0  0  0
  9 31  1  0  0  0
 10 17  2  0  0  0
 10 32  1  0  0  0
 11 14  1  0  0  0
 11 33  1  0  0  0
 12 15  2  0  0  0
 12 34  1  0  0  0
 13 14  2  0  0  0
 13 15  1  0  0  0
 13 18  1  0  0  0
 14 35  1  0  0  0
 15 36  1  0  0  0
 16 19  2  0  0  0
 17 19  1  0  0  0
 17 37  1  0  0  0
 18 38  1  0  0  0
 18 39  1  0  0  0
 19 40  1  0  0  0
 20 21  1  0  0  0
 20 42  1  0  0  0
 20 43  1  0  0  0
 21 44  1  0  0  0
 21 45  1  0  0  0
 21 46  1  0  0  0
 47 48  1  0  0  0
M  CHG  1  47   1
M  END
> <LID>
L015215

> <PC_CID>
44213467

> <Names>


> <CAS_Numbers>


$$$$
17775652
                    3D
 Structure written by MMmdl.
 47 49  0  0  1  0            999 V2000
   -4.7008    0.1804    0.0068 O   0  0  0  0  0  0
    4.3571   -1.7784    1.4099 O   0  0  0  0  0  0
    0.2296    1.5250   -0.3102 C   0  0  0  0  0  0
   -1.0315    2.3551   -0.1015 C   0  0  0  0  0  0
   -2.3274    1.6163   -0.4668 C   0  0  0  0  0  0
    0.2053    0.1702   -0.3015 C   0  0  0  0  0  0
   -2.3095    0.1345   -0.1254 C   0  0  0  0  0  0
   -1.0704   -0.5519   -0.0719 C   0  0  0  0  0  0
    1.5053    2.3381   -0.5398 C   0  0  0  0  0  0
    1.4494   -0.5901   -0.5138 C   0  0  0  0  0  0
   -3.5314   -0.5475    0.0989 C   0  0  0  0  0  0
   -1.0706   -1.9330    0.2305 C   0  0  0  0  0  0
   -3.4997   -1.9316    0.3975 C   0  0  0  0  0  0
   -2.2753   -2.6168    0.4635 C   0  0  0  0  0  0
    2.3216   -0.8300    0.5684 C   0  0  0  0  0  0
    1.7455   -1.1092   -1.7908 C   0  0  0  0  0  0
    3.6984    2.9580    0.3749 C   0  0  0  0  0  0
    1.7006    3.2875    1.7549 C   0  0  0  0  0  0
    3.5071   -1.5624    0.3651 C   0  0  0  0  0  0
    2.9296   -1.8454   -1.9902 C   0  0  0  0  0  0
    3.8119   -2.0687   -0.9145 C   0  0  0  0  0  0
   -5.9344   -0.4882    0.2271 C   0  0  0  0  0  0
   -1.0735    2.6327    0.9507 H   0  0  0  0  0  0
   -0.9837    3.2871   -0.6653 H   0  0  0  0  0  0
   -2.4939    1.6934   -1.5418 H   0  0  0  0  0  0
   -3.1688    2.1170    0.0129 H   0  0  0  0  0  0
    2.0949    1.8452   -1.3139 H   0  0  0  0  0  0
    1.2663    3.3221   -0.9452 H   0  0  0  0  0  0
   -0.1468   -2.4888    0.2921 H   0  0  0  0  0  0
   -4.4025   -2.4945    0.5784 H   0  0  0  0  0  0
   -2.2600   -3.6722    0.6930 H   0  0  0  0  0  0
    2.0837   -0.4526    1.5524 H   0  0  0  0  0  0
    1.0701   -0.9411   -2.6173 H   0  0  0  0  0  0
    3.6745    3.9632   -0.0483 H   0  0  0  0  0  0
    4.1862    2.2956   -0.3413 H   0  0  0  0  0  0
    4.3163    2.9791    1.2732 H   0  0  0  0  0  0
    1.4227    4.2772    1.3900 H   0  0  0  0  0  0
    2.3816    3.4153    2.5972 H   0  0  0  0  0  0
    0.8108    2.7950    2.1437 H   0  0  0  0  0  0
    3.1613   -2.2396   -2.9687 H   0  0  0  0  0  0
    4.7190   -2.6328   -1.0757 H   0  0  0  0  0  0
   -6.7526    0.2236    0.1191 H   0  0  0  0  0  0
   -6.0927   -1.2843   -0.5016 H   0  0  0  0  0  0
   -5.9896   -0.9022    1.2348 H   0  0  0  0  0  0
    5.1110   -2.2985    1.1767 H   0  0  0  0  0  0
    2.3329    2.4808    0.6865 N   0  3  0  0  0  0
    2.4477    1.5491    1.0602 H   0  0  0  0  0  0
  1 11  1  0  0  0
  1 22  1  0  0  0
  2 19  1  0  0  0
  2 45  1  0  0  0
  3  4  1  0  0  0
  3  6  2  0  0  0
  3  9  1  0  0  0
  4  5  1  0  0  0
  4 23  1  0  0  0
  4 24  1  0  0  0
  5  7  1  0  0  0
  5 25  1  0  0  0
  5 26  1  0  0  0
  6  8  1  0  0  0
  6 10  1  0  0  0
  7  8  2  0  0  0
  7 11  1  0  0  0
  8 12  1  0  0  0
  9 27  1  0  0  0
  9 28  1  0  0  0
  9 46  1  0  0  0
 10 15  2  0  0  0
 10 16  1  0  0  0
 11 13  2  0  0  0
 12 14  2  0  0  0
 12 29  1  0  0  0
 13 14  1  0  0  0
 13 30  1  0  0  0
 14 31  1  0  0  0
 15 19  1  0  0  0
 15 32  1  0  0  0
 16 20  2  0  0  0
 16 33  1  0  0  0
 17 34  1  0  0  0
 17 35  1  0  0  0
 17 36  1  0  0  0
 17 46  1  0  0  0
 18 37  1  0  0  0
 18 38  1  0  0  0
 18 39  1  0  0  0
 18 46  1  0  0  0
 19 21  2  0  0  0
 20 21  1  0  0  0
 20 40  1  0  0  0
 21 41  1  0  0  0
 22 42  1  0  0  0
 22 43  1  0  0  0
 22 44  1  0  0  0
 46 47  1  0  0  0
M  CHG  1  46   1
M  END
> <LID>
L017987

> <PC_CID>
17775652

> <Names>


> <CAS_Numbers>


$$$$
9954080
                    3D
 Structure written by MMmdl.
 59 62  0  0  1  0            999 V2000
    4.5398   -3.7769   -1.8941 O   0  0  0  0  0  0
   -7.9557   -0.6746   -0.5884 O   0  0  0  0  0  0
   -0.2814    1.1306    0.2352 C   0  0  2  0  0  0
   -0.1405    2.6490    0.0197 C   0  0  0  0  0  0
    0.4812    0.3194   -0.8316 C   0  0  0  0  0  0
    1.2877    3.1839    0.2094 C   0  0  0  0  0  0
    2.3081    2.6415   -0.8073 C   0  0  0  0  0  0
    1.9599    0.1585   -0.5115 C   0  0  0  0  0  0
    2.7969    1.2259   -0.5005 C   0  0  0  0  0  0
   -1.7465    0.7163    0.2984 C   0  0  0  0  0  0
    4.3012    1.1047   -0.2331 C   0  0  0  0  0  0
    2.4519   -1.2092   -0.2735 C   0  0  0  0  0  0
   -2.5783    0.8557   -0.8344 C   0  0  0  0  0  0
   -2.2831    0.1877    1.4924 C   0  0  0  0  0  0
   -3.9335    0.4713   -0.7762 C   0  0  0  0  0  0
   -3.6359   -0.1978    1.5563 C   0  0  0  0  0  0
   -4.4655   -0.0583    0.4254 C   0  0  0  0  0  0
    3.2727   -1.8535   -1.2232 C   0  0  0  0  0  0
    2.0693   -1.8858    0.9032 C   0  0  0  0  0  0
    6.0227    0.1429    1.2348 C   0  0  0  0  0  0
    4.1874    1.4344    2.2255 C   0  0  0  0  0  0
   -4.7623    0.6112   -1.9085 C   0  0  0  0  0  0
    3.7348   -3.1618   -0.9806 C   0  0  0  0  0  0
    2.5304   -3.1947    1.1423 C   0  0  0  0  0  0
   -5.8210   -0.4429    0.4838 C   0  0  0  0  0  0
    3.3655   -3.8314    0.2033 C   0  0  0  0  0  0
   -6.1156    0.2257   -1.8452 C   0  0  0  0  0  0
   -6.6449   -0.3010   -0.6502 C   0  0  0  0  0  0
    0.1483    0.8913    1.2095 H   0  0  0  0  0  0
   -0.7852    3.1638    0.7334 H   0  0  0  0  0  0
   -0.5093    2.9266   -0.9685 H   0  0  0  0  0  0
    0.3480    0.7421   -1.8281 H   0  0  0  0  0  0
    0.0563   -0.6843   -0.8878 H   0  0  0  0  0  0
    1.6271    3.0015    1.2282 H   0  0  0  0  0  0
    1.2496    4.2688    0.1048 H   0  0  0  0  0  0
    3.1527    3.3291   -0.8387 H   0  0  0  0  0  0
    1.8880    2.6649   -1.8135 H   0  0  0  0  0  0
    4.7316    0.4644   -1.0033 H   0  0  0  0  0  0
    4.8082    2.0640   -0.3406 H   0  0  0  0  0  0
   -2.1736    1.2585   -1.7516 H   0  0  0  0  0  0
   -1.6603    0.0745    2.3677 H   0  0  0  0  0  0
   -4.0325   -0.6007    2.4770 H   0  0  0  0  0  0
    3.5510   -1.3461   -2.1357 H   0  0  0  0  0  0
    1.4269   -1.4028    1.6255 H   0  0  0  0  0  0
    6.2061   -0.3311    2.1997 H   0  0  0  0  0  0
    6.2838   -0.5789    0.4598 H   0  0  0  0  0  0
    6.6888    1.0018    1.1426 H   0  0  0  0  0  0
    3.1074    1.5739    2.2264 H   0  0  0  0  0  0
    4.4533    0.9943    3.1872 H   0  0  0  0  0  0
    4.6643    2.4129    2.1547 H   0  0  0  0  0  0
   -4.3652    1.0140   -2.8289 H   0  0  0  0  0  0
    2.2419   -3.7119    2.0457 H   0  0  0  0  0  0
   -6.2328   -0.8474    1.3972 H   0  0  0  0  0  0
    3.7157   -4.8355    0.3935 H   0  0  0  0  0  0
   -6.7438    0.3362   -2.7170 H   0  0  0  0  0  0
    4.7779   -4.6582   -1.6499 H   0  0  0  0  0  0
   -8.4206   -0.5391   -1.3996 H   0  0  0  0  0  0
    4.6069    0.5532    1.1124 N   0  3  0  0  0  0
    4.0646   -0.2954    1.1983 H   0  0  0  0  0  0
  1 23  1  0  0  0
  1 56  1  0  0  0
  2 28  1  0  0  0
  2 57  1  0  0  0
  3  4  1  0  0  0
  3  5  1  0  0  0
  3 10  1  0  0  0
  3 29  1  0  0  0
  4  6  1  0  0  0
  4 30  1  0  0  0
  4 31  1  0  0  0
  5  8  1  0  0  0
  5 32  1  0  0  0
  5 33  1  0  0  0
  6  7  1  0  0  0
  6 34  1  0  0  0
  6 35  1  0  0  0
  7  9  1  0  0  0
  7 36  1  0  0  0
  7 37  1  0  0  0
  8  9  2  0  0  0
  8 12  1  0  0  0
  9 11  1  0  0  0
 10 13  2  0  0  0
 10 14  1  0  0  0
 11 38  1  0  0  0
 11 39  1  0  0  0
 11 58  1  0  0  0
 12 18  2  0  0  0
 12 19  1  0  0  0
 13 15  1  0  0  0
 13 40  1  0  0  0
 14 16  2  0  0  0
 14 41  1  0  0  0
 15 17  2  0  0  0
 15 22  1  0  0  0
 16 17  1  0  0  0
 16 42  1  0  0  0
 17 25  1  0  0  0
 18 23  1  0  0  0
 18 43  1  0  0  0
 19 24  2  0  0  0
 19 44  1  0  0  0
 20 45  1  0  0  0
 20 46  1  0  0  0
 20 47  1  0  0  0
 20 58  1  0  0  0
 21 48  1  0  0  0
 21 49  1  0  0  0
 21 50  1  0  0  0
 21 58  1  0  0  0
 22 27  2  0  0  0
 22 51  1  0  0  0
 23 26  2  0  0  0
 24 26  1  0  0  0
 24 52  1  0  0  0
 25 28  2  0  0  0
 25 53  1  0  0  0
 26 54  1  0  0  0
 27 28  1  0  0  0
 27 55  1  0  0  0
 58 59  1  0  0  0
M  CHG  1  58   1
M  END
> <LID>
L019792

> <PC_CID>
9954080

> <Names>


> <CAS_Numbers>


$$$$
44213019
                    3D
 Structure written by MMmdl.
 60 66  0  0  1  0            999 V2000
    0.2355    1.7554    1.4235 O   0  0  0  0  0  0
    0.5975   -2.6079    0.8723 O   0  0  0  0  0  0
    0.8417    4.4313   -0.0166 O   0  0  0  0  0  0
   -2.5139    0.5805    1.2709 N   0  0  0  0  0  0
    1.2114   -0.3156    0.7341 C   0  0  1  0  0  0
    0.8627   -1.5875   -0.1034 C   0  0  1  0  0  0
    0.0146    0.3397    1.5306 C   0  0  2  0  0  0
    2.1415   -1.9150   -0.9324 C   0  0  1  0  0  0
    2.4386   -0.6162    1.6495 C   0  0  0  0  0  0
    1.5595    0.8103   -0.2007 C   0  0  0  0  0  0
   -0.3958   -1.3781   -1.0042 C   0  0  0  0  0  0
    2.5517   -0.7448   -1.8812 C   0  0  0  0  0  0
   -1.2980    0.0661    0.8520 C   0  0  0  0  0  0
    3.6534   -1.1758    0.8928 C   0  0  0  0  0  0
    2.2740    0.6833   -1.4035 C   0  0  0  0  0  0
   -1.5018   -0.7029   -0.2599 C   0  0  0  0  0  0
    1.0088    1.9722    0.3160 C   0  0  0  0  0  0
   -0.0606   -0.0112    3.0318 C   0  0  0  0  0  0
   -2.9119   -0.6793   -0.5356 C   0  0  0  0  0  0
    4.3849   -2.9827   -0.6293 C   0  0  0  0  0  0
    2.5288    1.8842   -2.0927 C   0  0  0  0  0  0
    1.2850    3.1783   -0.3854 C   0  0  0  0  0  0
   -3.5353    0.1421    0.4505 C   0  0  0  0  0  0
    2.0576    3.1134   -1.5730 C   0  0  0  0  0  0
    0.2603   -3.9183    0.4304 C   0  0  0  0  0  0
   -3.7473   -1.2585   -1.5199 C   0  0  0  0  0  0
   -4.9228    0.3731    0.4591 C   0  0  0  0  0  0
   -5.1391   -1.0332   -1.5187 C   0  0  0  0  0  0
   -5.7275   -0.2194   -0.5313 C   0  0  0  0  0  0
    0.0573    4.5637    1.1582 C   0  0  0  0  0  0
    1.9491   -2.7874   -1.5573 H   0  0  0  0  0  0
    2.1644   -1.3462    2.4115 H   0  0  0  0  0  0
    2.7413    0.2826    2.1885 H   0  0  0  0  0  0
   -0.7365   -2.3075   -1.4565 H   0  0  0  0  0  0
   -0.1459   -0.7460   -1.8548 H   0  0  0  0  0  0
    1.9942   -0.8563   -2.8117 H   0  0  0  0  0  0
    3.5969   -0.8131   -2.1789 H   0  0  0  0  0  0
    4.1500   -0.3934    0.3183 H   0  0  0  0  0  0
    4.3898   -1.5371    1.6117 H   0  0  0  0  0  0
   -0.2083   -1.0814    3.1786 H   0  0  0  0  0  0
    0.8369    0.2864    3.5730 H   0  0  0  0  0  0
   -0.8920    0.5028    3.5145 H   0  0  0  0  0  0
   -2.6094    1.1896    2.0706 H   0  0  0  0  0  0
    5.0497   -3.3880    0.1342 H   0  0  0  0  0  0
    4.0423   -3.8174   -1.2416 H   0  0  0  0  0  0
    4.9719   -2.3129   -1.2574 H   0  0  0  0  0  0
    3.0628    1.8661   -3.0313 H   0  0  0  0  0  0
    2.2616    4.0238   -2.1173 H   0  0  0  0  0  0
    0.2189   -4.5769    1.2977 H   0  0  0  0  0  0
   -0.7222   -3.9555   -0.0381 H   0  0  0  0  0  0
    0.9986   -4.3344   -0.2537 H   0  0  0  0  0  0
   -3.3111   -1.8838   -2.2846 H   0  0  0  0  0  0
   -5.3671    0.9999    1.2180 H   0  0  0  0  0  0
   -5.7578   -1.4863   -2.2796 H   0  0  0  0  0  0
   -6.7943   -0.0494   -0.5353 H   0  0  0  0  0  0
   -0.1859    5.6153    1.3091 H   0  0  0  0  0  0
   -0.8841    4.0197    1.0720 H   0  0  0  0  0  0
    0.5988    4.2231    2.0416 H   0  0  0  0  0  0
    3.2412   -2.2884    0.0061 N   0  3  2  0  0  0
    2.8265   -2.9769    0.6192 H   0  0  0  0  0  0
  1  7  1  0  0  0
  1 17  1  0  0  0
  2  6  1  0  0  0
  2 25  1  0  0  0
  3 22  1  0  0  0
  3 30  1  0  0  0
  4 13  1  0  0  0
  4 23  1  0  0  0
  4 43  1  0  0  0
  5  6  1  0  0  0
  5  7  1  0  0  0
  5  9  1  0  0  0
  5 10  1  0  0  0
  6  8  1  0  0  0
  6 11  1  0  0  0
  7 13  1  0  0  0
  7 18  1  0  0  0
  8 12  1  0  0  0
  8 31  1  0  0  0
  8 59  1  0  0  0
  9 14  1  0  0  0
  9 32  1  0  0  0
  9 33  1  0  0  0
 10 15  2  0  0  0
 10 17  1  0  0  0
 11 16  1  0  0  0
 11 34  1  0  0  0
 11 35  1  0  0  0
 12 15  1  0  0  0
 12 36  1  0  0  0
 12 37  1  0  0  0
 13 16  2  0  0  0
 14 38  1  0  0  0
 14 39  1  0  0  0
 14 59  1  0  0  0
 15 21  1  0  0  0
 16 19  1  0  0  0
 17 22  2  0  0  0
 18 40  1  0  0  0
 18 41  1  0  0  0
 18 42  1  0  0  0
 19 23  1  0  0  0
 19 26  2  0  0  0
 20 44  1  0  0  0
 20 45  1  0  0  0
 20 46  1  0  0  0
 20 59  1  0  0  0
 21 24  2  0  0  0
 21 47  1  0  0  0
 22 24  1  0  0  0
 23 27  2  0  0  0
 24 48  1  0  0  0
 25 49  1  0  0  0
 25 50  1  0  0  0
 25 51  1  0  0  0
 26 28  1  0  0  0
 26 52  1  0  0  0
 27 29  1  0  0  0
 27 53  1  0  0  0
 28 29  2  0  0  0
 28 54  1  0  0  0
 29 55  1  0  0  0
 30 56  1  0  0  0
 30 57  1  0  0  0
 30 58  1  0  0  0
 59 60  1  0  0  0
M  CHG  1  59   1
M  END
> <LID>
L014021

> <PC_CID>
44213019

> <Names>


> <CAS_Numbers>


$$$$
44213018
                    3D
 Structure written by MMmdl.
 60 66  0  0  1  0            999 V2000
    0.0089   -1.8950   -1.5286 O   0  0  0  0  0  0
    0.8686    2.3355   -0.5726 O   0  0  0  0  0  0
    0.2818   -4.6306   -0.4516 O   0  0  0  0  0  0
   -2.5856   -0.4161   -1.2413 N   0  0  0  0  0  0
    1.2219   -0.0088   -0.6670 C   0  0  1  0  0  0
    1.0188    1.2029    0.2971 C   0  0  1  0  0  0
   -0.0459   -0.4563   -1.5044 C   0  0  2  0  0  0
    2.3301    1.3069    1.1346 C   0  0  1  0  0  0
    2.4694    0.2481   -1.5685 C   0  0  0  0  0  0
    1.4540   -1.2477    0.1504 C   0  0  0  0  0  0
   -0.2507    1.0433    1.1913 C   0  0  0  0  0  0
    2.6205    0.0106    1.9572 C   0  0  0  0  0  0
   -1.3169   -0.0953   -0.7874 C   0  0  0  0  0  0
    3.7417    0.5994   -0.7808 C   0  0  0  0  0  0
    2.1852   -1.3250    1.3477 C   0  0  0  0  0  0
   -1.4284    0.5800    0.3966 C   0  0  0  0  0  0
    0.7719   -2.2810   -0.4639 C   0  0  0  0  0  0
   -0.0838    0.0370   -2.9665 C   0  0  0  0  0  0
   -2.8314    0.6997    0.6830 C   0  0  0  0  0  0
    4.6715    2.1594    0.8984 C   0  0  0  0  0  0
    2.3050   -2.6127    1.9116 C   0  0  0  0  0  0
    0.9129   -3.5603    0.1103 C   0  0  0  0  0  0
   -3.5479    0.0598   -0.3718 C   0  0  0  0  0  0
    0.6286    3.6208   -0.0103 C   0  0  0  0  0  0
    1.6916   -3.7250    1.2827 C   0  0  0  0  0  0
   -3.5922    1.2768    1.7273 C   0  0  0  0  0  0
   -4.9532   -0.0000   -0.3889 C   0  0  0  0  0  0
    0.7703    4.6560   -1.1273 C   0  0  0  0  0  0
   -5.0011    1.2223    1.7183 C   0  0  0  0  0  0
   -5.6820    0.5857    0.6625 C   0  0  0  0  0  0
    2.2371    2.1277    1.8457 H   0  0  0  0  0  0
    2.2706    1.0735   -2.2527 H   0  0  0  0  0  0
    2.6717   -0.6209   -2.1960 H   0  0  0  0  0  0
   -0.4808    1.9532    1.7426 H   0  0  0  0  0  0
   -0.0705    0.3012    1.9675 H   0  0  0  0  0  0
    2.0855    0.0882    2.9042 H   0  0  0  0  0  0
    3.6694   -0.0628    2.2400 H   0  0  0  0  0  0
    4.1561   -0.2842   -0.2945 H   0  0  0  0  0  0
    4.5077    0.9511   -1.4732 H   0  0  0  0  0  0
   -0.1089    1.1262   -3.0134 H   0  0  0  0  0  0
    0.7732   -0.3090   -3.5435 H   0  0  0  0  0  0
   -0.9691   -0.3329   -3.4840 H   0  0  0  0  0  0
   -2.7533   -0.9273   -2.0959 H   0  0  0  0  0  0
    5.3702    2.5661    0.1667 H   0  0  0  0  0  0
    4.4234    2.9611    1.5948 H   0  0  0  0  0  0
    5.1882    1.3731    1.4482 H   0  0  0  0  0  0
    2.8426   -2.7486    2.8386 H   0  0  0  0  0  0
   -0.3772    3.6817    0.4042 H   0  0  0  0  0  0
    1.3353    3.8527    0.7853 H   0  0  0  0  0  0
    1.7875   -4.7052    1.7264 H   0  0  0  0  0  0
   -3.0848    1.7674    2.5445 H   0  0  0  0  0  0
   -5.4688   -0.4915   -1.2005 H   0  0  0  0  0  0
    0.5888    5.6630   -0.7511 H   0  0  0  0  0  0
    1.7721    4.6344   -1.5568 H   0  0  0  0  0  0
    0.0571    4.4652   -1.9296 H   0  0  0  0  0  0
   -0.2179   -4.3930   -1.2180 H   0  0  0  0  0  0
   -5.5616    1.6705    2.5257 H   0  0  0  0  0  0
   -6.7615    0.5462    0.6608 H   0  0  0  0  0  0
    3.4563    1.6551    0.2182 N   0  3  2  0  0  0
    3.1119    2.4408   -0.3165 H   0  0  0  0  0  0
  1  7  1  0  0  0
  1 17  1  0  0  0
  2  6  1  0  0  0
  2 24  1  0  0  0
  3 22  1  0  0  0
  3 56  1  0  0  0
  4 13  1  0  0  0
  4 23  1  0  0  0
  4 43  1  0  0  0
  5  6  1  0  0  0
  5  7  1  0  0  0
  5  9  1  0  0  0
  5 10  1  0  0  0
  6  8  1  0  0  0
  6 11  1  0  0  0
  7 13  1  0  0  0
  7 18  1  0  0  0
  8 12  1  0  0  0
  8 31  1  0  0  0
  8 59  1  0  0  0
  9 14  1  0  0  0
  9 32  1  0  0  0
  9 33  1  0  0  0
 10 15  2  0  0  0
 10 17  1  0  0  0
 11 16  1  0  0  0
 11 34  1  0  0  0
 11 35  1  0  0  0
 12 15  1  0  0  0
 12 36  1  0  0  0
 12 37  1  0  0  0
 13 16  2  0  0  0
 14 38  1  0  0  0
 14 39  1  0  0  0
 14 59  1  0  0  0
 15 21  1  0  0  0
 16 19  1  0  0  0
 17 22  2  0  0  0
 18 40  1  0  0  0
 18 41  1  0  0  0
 18 42  1  0  0  0
 19 23  1  0  0  0
 19 26  2  0  0  0
 20 44  1  0  0  0
 20 45  1  0  0  0
 20 46  1  0  0  0
 20 59  1  0  0  0
 21 25  2  0  0  0
 21 47  1  0  0  0
 22 25  1  0  0  0
 23 27  2  0  0  0
 24 28  1  0  0  0
 24 48  1  0  0  0
 24 49  1  0  0  0
 25 50  1  0  0  0
 26 29  1  0  0  0
 26 51  1  0  0  0
 27 30  1  0  0  0
 27 52  1  0  0  0
 28 53  1  0  0  0
 28 54  1  0  0  0
 28 55  1  0  0  0
 29 30  2  0  0  0
 29 57  1  0  0  0
 30 58  1  0  0  0
 59 60  1  0  0  0
M  CHG  1  59   1
M  END
> <LID>
L014020

> <PC_CID>
44213018

> <Names>


> <CAS_Numbers>


$$$$
44213947
                    3D
 Structure written by MMmdl.
 61 62  0  0  1  0            999 V2000
   -4.0644    1.4217   -0.3913 O   0  0  0  0  0  0
    6.3725   -1.6891    0.8661 O   0  0  0  0  0  0
   -4.0207   -0.7890    0.2049 N   0  0  0  0  0  0
   -5.4776   -0.7560    0.5301 C   0  0  0  0  0  0
   -3.2952   -2.0935    0.1226 C   0  0  0  0  0  0
   -3.4309    0.3906   -0.1580 C   0  0  0  0  0  0
   -6.3690   -0.8918   -0.7207 C   0  0  0  0  0  0
   -5.9257   -1.6881    1.6697 C   0  0  0  0  0  0
   -2.9342   -2.6924    1.4965 C   0  0  0  0  0  0
   -3.9616   -3.1195   -0.8109 C   0  0  0  0  0  0
   -1.9338    0.4706   -0.2597 C   0  0  0  0  0  0
    0.8836    0.6849   -0.4632 C   0  0  0  0  0  0
   -1.3331    0.8148   -1.4890 C   0  0  0  0  0  0
   -1.1188    0.2546    0.8727 C   0  0  0  0  0  0
    2.3503    0.7642   -0.5667 C   0  0  0  0  0  0
    0.0679    0.9095   -1.5927 C   0  0  0  0  0  0
    0.2819    0.3504    0.7677 C   0  0  0  0  0  0
    3.1362   -0.4851   -0.4530 C   0  0  0  0  0  0
    2.9694    1.9538   -0.7378 C   0  0  0  0  0  0
    2.3123    3.3234   -0.8291 C   0  0  0  0  0  0
    4.4085   -0.5011    0.1668 C   0  0  0  0  0  0
    2.6273   -1.6944   -0.9815 C   0  0  0  0  0  0
    5.1500   -1.6952    0.2603 C   0  0  0  0  0  0
    2.3834    5.6047    0.0788 C   0  0  0  0  0  0
    2.1394    3.7053    1.6087 C   0  0  0  0  0  0
    3.3671   -2.8891   -0.8897 C   0  0  0  0  0  0
    4.6295   -2.8912   -0.2687 C   0  0  0  0  0  0
   -5.7007    0.2309    0.9407 H   0  0  0  0  0  0
   -2.3351   -1.9388   -0.3663 H   0  0  0  0  0  0
   -7.4074   -0.6665   -0.4764 H   0  0  0  0  0  0
   -6.0661   -0.1988   -1.5059 H   0  0  0  0  0  0
   -6.3536   -1.8958   -1.1396 H   0  0  0  0  0  0
   -6.9544   -1.4676    1.9561 H   0  0  0  0  0  0
   -5.9016   -2.7395    1.3915 H   0  0  0  0  0  0
   -5.3135   -1.5472    2.5607 H   0  0  0  0  0  0
   -2.1252   -3.4161    1.3932 H   0  0  0  0  0  0
   -2.6001   -1.9312    2.1995 H   0  0  0  0  0  0
   -3.7644   -3.2259    1.9546 H   0  0  0  0  0  0
   -3.3033   -3.9740   -0.9703 H   0  0  0  0  0  0
   -4.8936   -3.5132   -0.4110 H   0  0  0  0  0  0
   -4.1658   -2.6853   -1.7900 H   0  0  0  0  0  0
   -1.9450    0.9973   -2.3608 H   0  0  0  0  0  0
   -1.5625    0.0224    1.8290 H   0  0  0  0  0  0
    0.5166    1.1588   -2.5433 H   0  0  0  0  0  0
    0.8954    0.1735    1.6392 H   0  0  0  0  0  0
    4.0464    1.9789   -0.8169 H   0  0  0  0  0  0
    2.6504    3.7809   -1.7597 H   0  0  0  0  0  0
    1.2259    3.2652   -0.8885 H   0  0  0  0  0  0
    4.8238    0.4016    0.5899 H   0  0  0  0  0  0
    1.6629   -1.7151   -1.4679 H   0  0  0  0  0  0
    2.7341    6.2228    0.9061 H   0  0  0  0  0  0
    2.8721    5.9613   -0.8286 H   0  0  0  0  0  0
    1.3085    5.7562   -0.0293 H   0  0  0  0  0  0
    2.4673    4.3454    2.4284 H   0  0  0  0  0  0
    1.0487    3.7105    1.5884 H   0  0  0  0  0  0
    2.4699    2.6916    1.8366 H   0  0  0  0  0  0
    2.9654   -3.8048   -1.2981 H   0  0  0  0  0  0
    5.1927   -3.8105   -0.2009 H   0  0  0  0  0  0
    6.7870   -2.5382    0.8776 H   0  0  0  0  0  0
    2.6967    4.1789    0.3197 N   0  3  0  0  0  0
    3.7023    4.1216    0.3985 H   0  0  0  0  0  0
  1  6  2  0  0  0
  2 23  1  0  0  0
  2 59  1  0  0  0
  3  4  1  0  0  0
  3  5  1  0  0  0
  3  6  1  0  0  0
  4  7  1  0  0  0
  4  8  1  0  0  0
  4 28  1  0  0  0
  5  9  1  0  0  0
  5 10  1  0  0  0
  5 29  1  0  0  0
  6 11  1  0  0  0
  7 30  1  0  0  0
  7 31  1  0  0  0
  7 32  1  0  0  0
  8 33  1  0  0  0
  8 34  1  0  0  0
  8 35  1  0  0  0
  9 36  1  0  0  0
  9 37  1  0  0  0
  9 38  1  0  0  0
 10 39  1  0  0  0
 10 40  1  0  0  0
 10 41  1  0  0  0
 11 13  2  0  0  0
 11 14  1  0  0  0
 12 15  1  0  0  0
 12 16  2  0  0  0
 12 17  1  0  0  0
 13 16  1  0  0  0
 13 42  1  0  0  0
 14 17  2  0  0  0
 14 43  1  0  0  0
 15 18  1  0  0  0
 15 19  2  0  0  0
 16 44  1  0  0  0
 17 45  1  0  0  0
 18 21  2  0  0  0
 18 22  1  0  0  0
 19 20  1  0  0  0
 19 46  1  0  0  0
 20 47  1  0  0  0
 20 48  1  0  0  0
 20 60  1  0  0  0
 21 23  1  0  0  0
 21 49  1  0  0  0
 22 26  2  0  0  0
 22 50  1  0  0  0
 23 27  2  0  0  0
 24 51  1  0  0  0
 24 52  1  0  0  0
 24 53  1  0  0  0
 24 60  1  0  0  0
 25 54  1  0  0  0
 25 55  1  0  0  0
 25 56  1  0  0  0
 25 60  1  0  0  0
 26 27  1  0  0  0
 26 57  1  0  0  0
 27 58  1  0  0  0
 60 61  1  0  0  0
M  CHG  1  60   1
M  END
> <LID>
L016384

> <PC_CID>
44213947

> <Names>


> <CAS_Numbers>


$$$$
44213946
                    3D
 Structure written by MMmdl.
 64 65  0  0  1  0            999 V2000
   -4.4167    1.2397   -0.3071 O   0  0  0  0  0  0
    6.2333   -1.1296    0.6594 O   0  0  0  0  0  0
   -4.2175   -0.9715    0.2548 N   0  0  0  0  0  0
   -5.6639   -1.0348    0.6201 C   0  0  0  0  0  0
   -3.4141   -2.2264    0.1334 C   0  0  0  0  0  0
   -3.7134    0.2477   -0.1065 C   0  0  0  0  0  0
   -6.5798   -1.2103   -0.6078 C   0  0  0  0  0  0
   -6.0202   -2.0082    1.7576 C   0  0  0  0  0  0
   -2.9776   -2.8191    1.4879 C   0  0  0  0  0  0
   -4.0408   -3.2801   -0.7966 C   0  0  0  0  0  0
   -2.2277    0.4235   -0.2477 C   0  0  0  0  0  0
    0.5639    0.8177   -0.5247 C   0  0  0  0  0  0
   -1.6845    0.8206   -1.4877 C   0  0  0  0  0  0
   -1.3692    0.2447    0.8588 C   0  0  0  0  0  0
    2.0193    0.9906   -0.6670 C   0  0  0  0  0  0
   -0.2957    1.0049   -1.6282 C   0  0  0  0  0  0
    0.0191    0.4302    0.7170 C   0  0  0  0  0  0
    2.8847   -0.2081   -0.5916 C   0  0  0  0  0  0
    2.5577    2.2186   -0.8389 C   0  0  0  0  0  0
    1.8139    3.5452   -0.8941 C   0  0  0  0  0  0
    4.1705   -0.1529   -0.0038 C   0  0  0  0  0  0
    2.4398   -1.4382   -1.1252 C   0  0  0  0  0  0
    5.0015   -1.2901    0.0619 C   0  0  0  0  0  0
    3.2570   -2.5816   -1.0681 C   0  0  0  0  0  0
    1.7673    5.8158    0.0418 C   0  0  0  0  0  0
    1.6853    3.8872    1.5523 C   0  0  0  0  0  0
    4.5323   -2.5122   -0.4784 C   0  0  0  0  0  0
    7.0902   -2.2594    0.7391 C   0  0  0  0  0  0
   -5.9369   -0.0694    1.0511 H   0  0  0  0  0  0
   -2.4798   -2.0049   -0.3792 H   0  0  0  0  0  0
   -7.6230   -1.0543   -0.3320 H   0  0  0  0  0  0
   -6.3433   -0.4894   -1.3907 H   0  0  0  0  0  0
   -6.5132   -2.2058   -1.0418 H   0  0  0  0  0  0
   -7.0523   -1.8568    2.0751 H   0  0  0  0  0  0
   -5.9380   -3.0523    1.4633 H   0  0  0  0  0  0
   -5.3933   -1.8405    2.6335 H   0  0  0  0  0  0
   -2.1280   -3.4888    1.3519 H   0  0  0  0  0  0
   -2.6722   -2.0475    2.1927 H   0  0  0  0  0  0
   -3.7594   -3.4099    1.9606 H   0  0  0  0  0  0
   -3.3349   -4.0891   -0.9866 H   0  0  0  0  0  0
   -4.9346   -3.7371   -0.3773 H   0  0  0  0  0  0
   -4.2993   -2.8469   -1.7633 H   0  0  0  0  0  0
   -2.3310    0.9754   -2.3398 H   0  0  0  0  0  0
   -1.7705   -0.0274    1.8233 H   0  0  0  0  0  0
    0.1095    1.2942   -2.5870 H   0  0  0  0  0  0
    0.6668    0.2811    1.5688 H   0  0  0  0  0  0
    3.6284    2.3123   -0.9470 H   0  0  0  0  0  0
    2.0966    4.0338   -1.8273 H   0  0  0  0  0  0
    0.7321    3.4195   -0.9248 H   0  0  0  0  0  0
    4.5341    0.7708    0.4214 H   0  0  0  0  0  0
    1.4667   -1.5143   -1.5883 H   0  0  0  0  0  0
    2.9047   -3.5158   -1.4801 H   0  0  0  0  0  0
    2.1015    6.4451    0.8675 H   0  0  0  0  0  0
    2.2073    6.2130   -0.8737 H   0  0  0  0  0  0
    0.6824    5.9006   -0.0352 H   0  0  0  0  0  0
    1.9952    4.5371    2.3713 H   0  0  0  0  0  0
    0.5962    3.8241    1.5616 H   0  0  0  0  0  0
    2.0847    2.8937    1.7577 H   0  0  0  0  0  0
    5.1307   -3.4102   -0.4530 H   0  0  0  0  0  0
    8.0182   -1.9728    1.2337 H   0  0  0  0  0  0
    6.6391   -3.0617    1.3246 H   0  0  0  0  0  0
    7.3478   -2.6354   -0.2520 H   0  0  0  0  0  0
    2.1758    4.4099    0.2551 N   0  3  0  0  0  0
    3.1848    4.4151    0.3060 H   0  0  0  0  0  0
  1  6  2  0  0  0
  2 23  1  0  0  0
  2 28  1  0  0  0
  3  4  1  0  0  0
  3  5  1  0  0  0
  3  6  1  0  0  0
  4  7  1  0  0  0
  4  8  1  0  0  0
  4 29  1  0  0  0
  5  9  1  0  0  0
  5 10  1  0  0  0
  5 30  1  0  0  0
  6 11  1  0  0  0
  7 31  1  0  0  0
  7 32  1  0  0  0
  7 33  1  0  0  0
  8 34  1  0  0  0
  8 35  1  0  0  0
  8 36  1  0  0  0
  9 37  1  0  0  0
  9 38  1  0  0  0
  9 39  1  0  0  0
 10 40  1  0  0  0
 10 41  1  0  0  0
 10 42  1  0  0  0
 11 13  2  0  0  0
 11 14  1  0  0  0
 12 15  1  0  0  0
 12 16  2  0  0  0
 12 17  1  0  0  0
 13 16  1  0  0  0
 13 43  1  0  0  0
 14 17  2  0  0  0
 14 44  1  0  0  0
 15 18  1  0  0  0
 15 19  2  0  0  0
 16 45  1  0  0  0
 17 46  1  0  0  0
 18 21  2  0  0  0
 18 22  1  0  0  0
 19 20  1  0  0  0
 19 47  1  0  0  0
 20 48  1  0  0  0
 20 49  1  0  0  0
 20 63  1  0  0  0
 21 23  1  0  0  0
 21 50  1  0  0  0
 22 24  2  0  0  0
 22 51  1  0  0  0
 23 27  2  0  0  0
 24 27  1  0  0  0
 24 52  1  0  0  0
 25 53  1  0  0  0
 25 54  1  0  0  0
 25 55  1  0  0  0
 25 63  1  0  0  0
 26 56  1  0  0  0
 26 57  1  0  0  0
 26 58  1  0  0  0
 26 63  1  0  0  0
 27 59  1  0  0  0
 28 60  1  0  0  0
 28 61  1  0  0  0
 28 62  1  0  0  0
 63 64  1  0  0  0
M  CHG  1  63   1
M  END
> <LID>
L016383

> <PC_CID>
44213946

> <Names>


> <CAS_Numbers>


$$$$
44213945
                    3D
 Structure written by MMmdl.
 53 55  0  0  1  0            999 V2000
   -4.5330    1.0072   -0.4947 O   0  0  0  0  0  0
    6.1168   -1.4777    0.7033 O   0  0  0  0  0  0
   -4.2888   -1.1571    0.1347 N   0  0  0  0  0  0
   -5.8357   -2.8797    0.7228 C   0  0  0  0  0  0
   -4.5505   -3.5254    0.2257 C   0  0  0  0  0  0
   -5.7208   -1.4272    0.2594 C   0  0  0  0  0  0
   -3.5236   -2.3957    0.2955 C   0  0  0  0  0  0
   -3.8034    0.0553   -0.2157 C   0  0  0  0  0  0
   -2.3127    0.2317   -0.2887 C   0  0  0  0  0  0
   -1.7282    0.7470   -1.4653 C   0  0  0  0  0  0
   -1.4882   -0.0528    0.8229 C   0  0  0  0  0  0
    0.4875    0.6526   -0.4337 C   0  0  0  0  0  0
    1.9459    0.8415   -0.5099 C   0  0  0  0  0  0
   -0.3362    0.9446   -1.5416 C   0  0  0  0  0  0
   -0.0965    0.1459    0.7456 C   0  0  0  0  0  0
    2.8152   -0.3565   -0.5234 C   0  0  0  0  0  0
    2.4832    2.0816   -0.5423 C   0  0  0  0  0  0
    1.7346    3.4057   -0.4918 C   0  0  0  0  0  0
    4.0808   -0.3551    0.1102 C   0  0  0  0  0  0
    2.3952   -1.5307   -1.1907 C   0  0  0  0  0  0
    4.9024   -1.4990    0.0819 C   0  0  0  0  0  0
    1.6464    5.5737    0.6595 C   0  0  0  0  0  0
    1.5264    3.5064    1.9709 C   0  0  0  0  0  0
    3.2152   -2.6752   -1.2209 C   0  0  0  0  0  0
    4.4699   -2.6609   -0.5846 C   0  0  0  0  0  0
   -6.7317   -3.3744    0.3468 H   0  0  0  0  0  0
   -5.8654   -2.9161    1.8126 H   0  0  0  0  0  0
   -4.2604   -4.3985    0.8110 H   0  0  0  0  0  0
   -4.6774   -3.8434   -0.8101 H   0  0  0  0  0  0
   -6.1949   -1.3008   -0.7153 H   0  0  0  0  0  0
   -6.2030   -0.7451    0.9613 H   0  0  0  0  0  0
   -3.0396   -2.3969    1.2724 H   0  0  0  0  0  0
   -2.7547   -2.5151   -0.4694 H   0  0  0  0  0  0
   -2.3457    0.9855   -2.3195 H   0  0  0  0  0  0
   -1.9176   -0.4192    1.7439 H   0  0  0  0  0  0
    0.0990    1.3263   -2.4538 H   0  0  0  0  0  0
    0.5235   -0.0846    1.5998 H   0  0  0  0  0  0
    3.5563    2.1876   -0.6049 H   0  0  0  0  0  0
    2.0446    3.9838   -1.3632 H   0  0  0  0  0  0
    0.6550    3.2813   -0.5696 H   0  0  0  0  0  0
    4.4292    0.5208    0.6371 H   0  0  0  0  0  0
    1.4384   -1.5622   -1.6912 H   0  0  0  0  0  0
    1.9508    6.1199    1.5531 H   0  0  0  0  0  0
    2.1132    6.0595   -0.1981 H   0  0  0  0  0  0
    0.5641    5.6634    0.5563 H   0  0  0  0  0  0
    1.8067    4.0737    2.8591 H   0  0  0  0  0  0
    0.4379    3.4405    1.9390 H   0  0  0  0  0  0
    1.9242    2.4985    2.0910 H   0  0  0  0  0  0
    2.8811   -3.5646   -1.7346 H   0  0  0  0  0  0
    5.0949   -3.5416   -0.6107 H   0  0  0  0  0  0
    6.5891   -2.2926    0.6267 H   0  0  0  0  0  0
    2.0552    4.1545    0.7475 N   0  3  0  0  0  0
    3.0621    4.1568    0.8311 H   0  0  0  0  0  0
  1  8  2  0  0  0
  2 21  1  0  0  0
  2 51  1  0  0  0
  3  6  1  0  0  0
  3  7  1  0  0  0
  3  8  1  0  0  0
  4  5  1  0  0  0
  4  6  1  0  0  0
  4 26  1  0  0  0
  4 27  1  0  0  0
  5  7  1  0  0  0
  5 28  1  0  0  0
  5 29  1  0  0  0
  6 30  1  0  0  0
  6 31  1  0  0  0
  7 32  1  0  0  0
  7 33  1  0  0  0
  8  9  1  0  0  0
  9 10  2  0  0  0
  9 11  1  0  0  0
 10 14  1  0  0  0
 10 34  1  0  0  0
 11 15  2  0  0  0
 11 35  1  0  0  0
 12 13  1  0  0  0
 12 14  2  0  0  0
 12 15  1  0  0  0
 13 16  1  0  0  0
 13 17  2  0  0  0
 14 36  1  0  0  0
 15 37  1  0  0  0
 16 19  2  0  0  0
 16 20  1  0  0  0
 17 18  1  0  0  0
 17 38  1  0  0  0
 18 39  1  0  0  0
 18 40  1  0  0  0
 18 52  1  0  0  0
 19 21  1  0  0  0
 19 41  1  0  0  0
 20 24  2  0  0  0
 20 42  1  0  0  0
 21 25  2  0  0  0
 22 43  1  0  0  0
 22 44  1  0  0  0
 22 45  1  0  0  0
 22 52  1  0  0  0
 23 46  1  0  0  0
 23 47  1  0  0  0
 23 48  1  0  0  0
 23 52  1  0  0  0
 24 25  1  0  0  0
 24 49  1  0  0  0
 25 50  1  0  0  0
 52 53  1  0  0  0
M  CHG  1  52   1
M  END
> <LID>
L016381

> <PC_CID>
44213945

> <Names>


> <CAS_Numbers>


$$$$
44213944
                    3D
 Structure written by MMmdl.
 55 56  0  0  1  0            999 V2000
   -4.5662    0.8420   -0.0054 O   0  0  0  0  0  0
    6.1841   -1.1966    0.7369 O   0  0  0  0  0  0
   -4.2548   -1.3448    0.5532 N   0  0  0  0  0  0
    1.8691    0.7212   -0.6600 C   0  0  0  0  0  0
    0.4253    0.5241   -0.4483 C   0  0  0  0  0  0
   -2.3416    0.0886   -0.0302 C   0  0  0  0  0  0
   -5.6874   -1.5818    0.7851 C   0  0  0  0  0  0
   -3.4189   -2.5547    0.6359 C   0  0  0  0  0  0
   -3.8132   -0.1146    0.1811 C   0  0  0  0  0  0
    2.7759   -0.4339   -0.4737 C   0  0  0  0  0  0
    2.3607    1.9356   -0.9936 C   0  0  0  0  0  0
    1.5715    3.2236   -1.1789 C   0  0  0  0  0  0
   -0.4731    0.5502   -1.5365 C   0  0  0  0  0  0
   -0.0684    0.2750    0.8491 C   0  0  0  0  0  0
   -1.8502    0.3448   -1.3274 C   0  0  0  0  0  0
   -1.4451    0.0685    1.0596 C   0  0  0  0  0  0
   -6.4489   -1.8198   -0.5284 C   0  0  0  0  0  0
   -3.0699   -2.9285    2.0855 C   0  0  0  0  0  0
    4.0781   -0.2700    0.0561 C   0  0  0  0  0  0
    2.3547   -1.7334   -0.8404 C   0  0  0  0  0  0
    1.4771    5.5865   -0.5147 C   0  0  0  0  0  0
    1.5052    3.8486    1.2135 C   0  0  0  0  0  0
    4.9344   -1.3765    0.2198 C   0  0  0  0  0  0
    3.2093   -2.8408   -0.6783 C   0  0  0  0  0  0
    4.5003   -2.6639   -0.1480 C   0  0  0  0  0  0
   -5.8263   -2.4453    1.4361 H   0  0  0  0  0  0
   -6.1292   -0.7421    1.3246 H   0  0  0  0  0  0
   -3.9584   -3.3852    0.1787 H   0  0  0  0  0  0
   -2.5055   -2.4650    0.0477 H   0  0  0  0  0  0
    3.4238    2.0474   -1.1486 H   0  0  0  0  0  0
    1.8096    3.6065   -2.1720 H   0  0  0  0  0  0
    0.4941    3.0629   -1.1582 H   0  0  0  0  0  0
   -0.1067    0.7316   -2.5365 H   0  0  0  0  0  0
    0.6094    0.2497    1.6900 H   0  0  0  0  0  0
   -2.5274    0.3751   -2.1690 H   0  0  0  0  0  0
   -1.8085   -0.0940    2.0631 H   0  0  0  0  0  0
   -7.5036   -2.0136   -0.3326 H   0  0  0  0  0  0
   -6.3909   -0.9536   -1.1879 H   0  0  0  0  0  0
   -6.0496   -2.6789   -1.0680 H   0  0  0  0  0  0
   -2.4582   -3.8305    2.1106 H   0  0  0  0  0  0
   -2.5104   -2.1416    2.5874 H   0  0  0  0  0  0
   -3.9640   -3.1256    2.6769 H   0  0  0  0  0  0
    4.4293    0.7063    0.3558 H   0  0  0  0  0  0
    1.3699   -1.8919   -1.2552 H   0  0  0  0  0  0
    1.8147    6.3187    0.2197 H   0  0  0  0  0  0
    1.8758    5.8855   -1.4848 H   0  0  0  0  0  0
    0.3881    5.6294   -0.5644 H   0  0  0  0  0  0
    1.8175    4.5998    1.9397 H   0  0  0  0  0  0
    0.4196    3.7545    1.2669 H   0  0  0  0  0  0
    1.9438    2.8988    1.5204 H   0  0  0  0  0  0
    2.8737   -3.8272   -0.9630 H   0  0  0  0  0  0
    5.1518   -3.5169   -0.0257 H   0  0  0  0  0  0
    6.6778   -1.9994    0.8064 H   0  0  0  0  0  0
    1.9387    4.2285   -0.1519 N   0  3  0  0  0  0
    2.9480    4.2696   -0.1361 H   0  0  0  0  0  0
  1  9  2  0  0  0
  2 23  1  0  0  0
  2 53  1  0  0  0
  3  7  1  0  0  0
  3  8  1  0  0  0
  3  9  1  0  0  0
  4  5  1  0  0  0
  4 10  1  0  0  0
  4 11  2  0  0  0
  5 13  2  0  0  0
  5 14  1  0  0  0
  6  9  1  0  0  0
  6 15  2  0  0  0
  6 16  1  0  0  0
  7 17  1  0  0  0
  7 26  1  0  0  0
  7 27  1  0  0  0
  8 18  1  0  0  0
  8 28  1  0  0  0
  8 29  1  0  0  0
 10 19  2  0  0  0
 10 20  1  0  0  0
 11 12  1  0  0  0
 11 30  1  0  0  0
 12 31  1  0  0  0
 12 32  1  0  0  0
 12 54  1  0  0  0
 13 15  1  0  0  0
 13 33  1  0  0  0
 14 16  2  0  0  0
 14 34  1  0  0  0
 15 35  1  0  0  0
 16 36  1  0  0  0
 17 37  1  0  0  0
 17 38  1  0  0  0
 17 39  1  0  0  0
 18 40  1  0  0  0
 18 41  1  0  0  0
 18 42  1  0  0  0
 19 23  1  0  0  0
 19 43  1  0  0  0
 20 24  2  0  0  0
 20 44  1  0  0  0
 21 45  1  0  0  0
 21 46  1  0  0  0
 21 47  1  0  0  0
 21 54  1  0  0  0
 22 48  1  0  0  0
 22 49  1  0  0  0
 22 50  1  0  0  0
 22 54  1  0  0  0
 23 25  2  0  0  0
 24 25  1  0  0  0
 24 51  1  0  0  0
 25 52  1  0  0  0
 54 55  1  0  0  0
M  CHG  1  54   1
M  END
> <LID>
L016378

> <PC_CID>
44213944

> <Names>


> <CAS_Numbers>


$$$$
44213943
                    3D
 Structure written by MMmdl.
 58 59  0  0  1  0            999 V2000
    4.9336    0.5904   -0.0527 O   0  0  0  0  0  0
   -5.9461   -0.6438   -0.4571 O   0  0  0  0  0  0
    4.4610   -1.5792   -0.5630 N   0  0  0  0  0  0
   -1.4716    0.9081    0.8009 C   0  0  0  0  0  0
   -0.0514    0.6121    0.5485 C   0  0  0  0  0  0
    2.6660   -0.0129    0.0535 C   0  0  0  0  0  0
   -2.4581   -0.1868    0.6621 C   0  0  0  0  0  0
    4.1137   -0.3168   -0.1992 C   0  0  0  0  0  0
    5.8668   -1.9145   -0.8345 C   0  0  0  0  0  0
    3.5449   -2.7319   -0.5989 C   0  0  0  0  0  0
   -1.8712    2.1572    1.1287 C   0  0  0  0  0  0
   -0.9931    3.3925    1.2682 C   0  0  0  0  0  0
    0.8808    0.5950    1.6081 C   0  0  0  0  0  0
    0.3834    0.3108   -0.7588 C   0  0  0  0  0  0
    2.2341    0.2953    1.3605 C   0  0  0  0  0  0
    1.7361    0.0100   -1.0078 C   0  0  0  0  0  0
   -3.7613    0.0539    0.1664 C   0  0  0  0  0  0
   -2.1136   -1.5035    1.0409 C   0  0  0  0  0  0
    6.6522   -2.1823    0.4589 C   0  0  0  0  0  0
    3.1261   -3.1040   -2.0304 C   0  0  0  0  0  0
   -4.7069   -0.9845    0.0412 C   0  0  0  0  0  0
   -3.0457   -2.5503    0.9228 C   0  0  0  0  0  0
   -0.7631    5.7336    0.5612 C   0  0  0  0  0  0
   -0.9596    3.9755   -1.1354 C   0  0  0  0  0  0
   -4.3371   -2.2964    0.4259 C   0  0  0  0  0  0
   -6.9174   -1.6709   -0.5938 C   0  0  0  0  0  0
    5.9277   -2.7953   -1.4742 H   0  0  0  0  0  0
    6.3456   -1.1145   -1.4019 H   0  0  0  0  0  0
    4.0427   -3.5894   -0.1440 H   0  0  0  0  0  0
    2.6586   -2.5726    0.0155 H   0  0  0  0  0  0
   -2.9192    2.3418    1.3142 H   0  0  0  0  0  0
   -1.1744    3.8054    2.2613 H   0  0  0  0  0  0
    0.0702    3.1601    1.2180 H   0  0  0  0  0  0
    0.5591    0.8157    2.6156 H   0  0  0  0  0  0
   -0.3210    0.3177   -1.5780 H   0  0  0  0  0  0
    2.9381    0.2934    2.1803 H   0  0  0  0  0  0
    2.0560   -0.1917   -2.0189 H   0  0  0  0  0  0
   -4.0505    1.0480   -0.1405 H   0  0  0  0  0  0
   -1.1300   -1.7216    1.4307 H   0  0  0  0  0  0
    7.6851   -2.4488    0.2344 H   0  0  0  0  0  0
    6.6725   -1.3040    1.1046 H   0  0  0  0  0  0
    6.2144   -3.0044    1.0255 H   0  0  0  0  0  0
    2.4558   -3.9636   -2.0208 H   0  0  0  0  0  0
    2.6040   -2.2895   -2.5284 H   0  0  0  0  0  0
    3.9860   -3.3691   -2.6453 H   0  0  0  0  0  0
   -1.0740    6.4755   -0.1752 H   0  0  0  0  0  0
   -1.1108    6.0731    1.5375 H   0  0  0  0  0  0
    0.3274    5.7044    0.5776 H   0  0  0  0  0  0
   -1.2438    4.7349   -1.8647 H   0  0  0  0  0  0
    0.1152    3.8085   -1.2196 H   0  0  0  0  0  0
   -1.4694    3.0526   -1.4128 H   0  0  0  0  0  0
   -2.7694   -3.5524    1.2162 H   0  0  0  0  0  0
   -5.0249   -3.1246    0.3496 H   0  0  0  0  0  0
   -7.8363   -1.2455   -0.9969 H   0  0  0  0  0  0
   -6.5832   -2.4466   -1.2840 H   0  0  0  0  0  0
   -7.1585   -2.1227    0.3693 H   0  0  0  0  0  0
   -1.3246    4.4041    0.2356 N   0  3  0  0  0  0
   -2.3290    4.5122    0.2493 H   0  0  0  0  0  0
  1  8  2  0  0  0
  2 21  1  0  0  0
  2 26  1  0  0  0
  3  8  1  0  0  0
  3  9  1  0  0  0
  3 10  1  0  0  0
  4  5  1  0  0  0
  4  7  1  0  0  0
  4 11  2  0  0  0
  5 13  2  0  0  0
  5 14  1  0  0  0
  6  8  1  0  0  0
  6 15  2  0  0  0
  6 16  1  0  0  0
  7 17  2  0  0  0
  7 18  1  0  0  0
  9 19  1  0  0  0
  9 27  1  0  0  0
  9 28  1  0  0  0
 10 20  1  0  0  0
 10 29  1  0  0  0
 10 30  1  0  0  0
 11 12  1  0  0  0
 11 31  1  0  0  0
 12 32  1  0  0  0
 12 33  1  0  0  0
 12 57  1  0  0  0
 13 15  1  0  0  0
 13 34  1  0  0  0
 14 16  2  0  0  0
 14 35  1  0  0  0
 15 36  1  0  0  0
 16 37  1  0  0  0
 17 21  1  0  0  0
 17 38  1  0  0  0
 18 22  2  0  0  0
 18 39  1  0  0  0
 19 40  1  0  0  0
 19 41  1  0  0  0
 19 42  1  0  0  0
 20 43  1  0  0  0
 20 44  1  0  0  0
 20 45  1  0  0  0
 21 25  2  0  0  0
 22 25  1  0  0  0
 22 52  1  0  0  0
 23 46  1  0  0  0
 23 47  1  0  0  0
 23 48  1  0  0  0
 23 57  1  0  0  0
 24 49  1  0  0  0
 24 50  1  0  0  0
 24 51  1  0  0  0
 24 57  1  0  0  0
 25 53  1  0  0  0
 26 54  1  0  0  0
 26 55  1  0  0  0
 26 56  1  0  0  0
 57 58  1  0  0  0
M  CHG  1  57   1
M  END
> <LID>
L016377

> <PC_CID>
44213943

> <Names>


> <CAS_Numbers>


$$$$
44213942
                    3D
 Structure written by MMmdl.
 59 61  0  0  1  0            999 V2000
   -4.9350   -0.9325    1.2921 O   0  0  0  0  0  0
    2.9361   -3.8416    2.3217 O   0  0  0  0  0  0
   -5.2614    0.8568   -0.0794 N   0  0  0  0  0  0
    5.5239    2.0277    0.2711 C   0  0  0  0  0  0
    3.6106    3.4524    0.3429 C   0  0  0  0  0  0
    5.9195    3.2717    1.0593 C   0  0  0  0  0  0
    4.8620    4.2895    0.6429 C   0  0  0  0  0  0
    3.4394    1.2381   -0.8233 C   0  0  0  0  0  0
    1.9425    1.0725   -0.6016 C   0  0  0  0  0  0
    1.2792   -0.0740   -0.3315 C   0  0  0  0  0  0
   -0.1831   -0.0598   -0.0992 C   0  0  0  0  0  0
    1.9939   -1.3584   -0.2387 C   0  0  0  0  0  0
   -0.9795   -1.1497   -0.5197 C   0  0  0  0  0  0
   -0.8183    1.0344    0.5339 C   0  0  0  0  0  0
   -3.0004   -0.0444    0.2980 C   0  0  0  0  0  0
    2.1346   -1.9981    1.0111 C   0  0  0  0  0  0
   -2.3727   -1.1473   -0.3156 C   0  0  0  0  0  0
   -2.2113    1.0390    0.7392 C   0  0  0  0  0  0
    2.5076   -1.9817   -1.3969 C   0  0  0  0  0  0
   -4.4824   -0.0692    0.5394 C   0  0  0  0  0  0
   -6.7055    0.9185    0.1896 C   0  0  0  0  0  0
   -4.7984    1.7931   -1.1169 C   0  0  0  0  0  0
    2.7996   -3.2362    1.1068 C   0  0  0  0  0  0
    3.1723   -3.2197   -1.3028 C   0  0  0  0  0  0
    3.3207   -3.8467   -0.0509 C   0  0  0  0  0  0
   -7.0094    1.8050    1.4054 C   0  0  0  0  0  0
   -4.6976    1.1130   -2.4902 C   0  0  0  0  0  0
    5.9210    1.1100    0.7063 H   0  0  0  0  0  0
    5.8973    2.1074   -0.7515 H   0  0  0  0  0  0
    3.1468    3.7889   -0.5857 H   0  0  0  0  0  0
    2.8696    3.5512    1.1369 H   0  0  0  0  0  0
    6.9363    3.6038    0.8471 H   0  0  0  0  0  0
    5.8452    3.0740    2.1297 H   0  0  0  0  0  0
    4.6878    5.0482    1.4066 H   0  0  0  0  0  0
    5.1858    4.8018   -0.2642 H   0  0  0  0  0  0
    3.6107    1.7192   -1.7872 H   0  0  0  0  0  0
    3.9417    0.2725   -0.8631 H   0  0  0  0  0  0
    1.3826    1.9933   -0.6734 H   0  0  0  0  0  0
   -0.5272   -2.0014   -1.0063 H   0  0  0  0  0  0
   -0.2417    1.8768    0.8860 H   0  0  0  0  0  0
   -2.9593   -1.9948   -0.6402 H   0  0  0  0  0  0
   -2.6717    1.8787    1.2398 H   0  0  0  0  0  0
    1.7318   -1.5367    1.9013 H   0  0  0  0  0  0
    2.3921   -1.5099   -2.3620 H   0  0  0  0  0  0
   -7.2368    1.3032   -0.6821 H   0  0  0  0  0  0
   -7.1167   -0.0800    0.3481 H   0  0  0  0  0  0
   -5.4890    2.6346   -1.1889 H   0  0  0  0  0  0
   -3.8465    2.2513   -0.8574 H   0  0  0  0  0  0
    3.5661   -3.6899   -2.1919 H   0  0  0  0  0  0
    3.8308   -4.7967    0.0152 H   0  0  0  0  0  0
   -8.0830    1.8581    1.5867 H   0  0  0  0  0  0
   -6.5405    1.4139    2.3088 H   0  0  0  0  0  0
   -6.6477    2.8222    1.2527 H   0  0  0  0  0  0
   -4.3922    1.8287   -3.2536 H   0  0  0  0  0  0
   -3.9656    0.3052   -2.4853 H   0  0  0  0  0  0
   -5.6571    0.6938   -2.7941 H   0  0  0  0  0  0
    3.3850   -4.6718    2.2770 H   0  0  0  0  0  0
    4.0474    2.0363    0.2664 N   0  3  0  0  0  0
    3.7691    1.6087    1.1384 H   0  0  0  0  0  0
  1 20  2  0  0  0
  2 23  1  0  0  0
  2 57  1  0  0  0
  3 20  1  0  0  0
  3 21  1  0  0  0
  3 22  1  0  0  0
  4  6  1  0  0  0
  4 28  1  0  0  0
  4 29  1  0  0  0
  4 58  1  0  0  0
  5  7  1  0  0  0
  5 30  1  0  0  0
  5 31  1  0  0  0
  5 58  1  0  0  0
  6  7  1  0  0  0
  6 32  1  0  0  0
  6 33  1  0  0  0
  7 34  1  0  0  0
  7 35  1  0  0  0
  8  9  1  0  0  0
  8 36  1  0  0  0
  8 37  1  0  0  0
  8 58  1  0  0  0
  9 10  2  0  0  0
  9 38  1  0  0  0
 10 11  1  0  0  0
 10 12  1  0  0  0
 11 13  2  0  0  0
 11 14  1  0  0  0
 12 16  2  0  0  0
 12 19  1  0  0  0
 13 17  1  0  0  0
 13 39  1  0  0  0
 14 18  2  0  0  0
 14 40  1  0  0  0
 15 17  2  0  0  0
 15 18  1  0  0  0
 15 20  1  0  0  0
 16 23  1  0  0  0
 16 43  1  0  0  0
 17 41  1  0  0  0
 18 42  1  0  0  0
 19 24  2  0  0  0
 19 44  1  0  0  0
 21 26  1  0  0  0
 21 45  1  0  0  0
 21 46  1  0  0  0
 22 27  1  0  0  0
 22 47  1  0  0  0
 22 48  1  0  0  0
 23 25  2  0  0  0
 24 25  1  0  0  0
 24 49  1  0  0  0
 25 50  1  0  0  0
 26 51  1  0  0  0
 26 52  1  0  0  0
 26 53  1  0  0  0
 27 54  1  0  0  0
 27 55  1  0  0  0
 27 56  1  0  0  0
 58 59  1  0  0  0
M  CHG  1  58   1
M  END
> <LID>
L016376

> <PC_CID>
44213942

> <Names>


> <CAS_Numbers>


$$$$
44213941
                    3D
 Structure written by MMmdl.
 62 64  0  0  1  0            999 V2000
   -4.3643   -3.1513    1.0795 O   0  0  0  0  0  0
    3.0531   -3.7048   -0.4908 O   0  0  0  0  0  0
    4.4423   -1.9492   -0.0691 N   0  0  0  0  0  0
    1.2451    4.6050   -0.3587 C   0  0  0  0  0  0
   -1.1222    4.9332   -0.3621 C   0  0  0  0  0  0
    0.9469    6.0873   -0.6196 C   0  0  0  0  0  0
   -0.4967    6.1060   -1.1098 C   0  0  0  0  0  0
   -0.1825    2.9282    0.8043 C   0  0  0  0  0  0
   -1.4487    2.0949    0.6626 C   0  0  0  0  0  0
   -1.5309    0.7692    0.4108 C   0  0  0  0  0  0
   -0.3167   -0.0509    0.2591 C   0  0  0  0  0  0
   -2.8501    0.1139    0.2604 C   0  0  0  0  0  0
    0.0138   -0.5969   -0.9987 C   0  0  0  0  0  0
    0.5007   -0.3391    1.3731 C   0  0  0  0  0  0
    1.9994   -1.6535   -0.0416 C   0  0  0  0  0  0
   -3.0411   -1.2099    0.7192 C   0  0  0  0  0  0
   -3.9455    0.7896   -0.3244 C   0  0  0  0  0  0
    1.1637   -1.3957   -1.1484 C   0  0  0  0  0  0
    1.6513   -1.1366    1.2247 C   0  0  0  0  0  0
    3.2155   -2.5162   -0.2124 C   0  0  0  0  0  0
    5.6585   -2.7636   -0.2109 C   0  0  0  0  0  0
    4.6941   -0.5079    0.1001 C   0  0  0  0  0  0
   -4.2860   -1.8611    0.6009 C   0  0  0  0  0  0
   -5.1940    0.1535   -0.4503 C   0  0  0  0  0  0
   -5.3677   -1.1649    0.0086 C   0  0  0  0  0  0
    6.0407   -2.9717   -1.6848 C   0  0  0  0  0  0
    5.0499   -0.1401    1.5497 C   0  0  0  0  0  0
   -5.6065   -3.8309    0.9706 C   0  0  0  0  0  0
    1.8363    4.1765   -1.1687 H   0  0  0  0  0  0
    1.8164    4.4870    0.5636 H   0  0  0  0  0  0
   -1.3910    5.2467    0.6482 H   0  0  0  0  0  0
   -2.0227    4.5609   -0.8518 H   0  0  0  0  0  0
    1.6391    6.5382   -1.3315 H   0  0  0  0  0  0
    1.0216    6.6459    0.3146 H   0  0  0  0  0  0
   -1.0006    7.0529   -0.9132 H   0  0  0  0  0  0
   -0.5278    5.9229   -2.1849 H   0  0  0  0  0  0
    0.7061    2.2985    0.8046 H   0  0  0  0  0  0
   -0.1993    3.4459    1.7643 H   0  0  0  0  0  0
   -2.3619    2.6595    0.7808 H   0  0  0  0  0  0
   -0.6163   -0.4037   -1.8548 H   0  0  0  0  0  0
    0.2431    0.0488    2.3479 H   0  0  0  0  0  0
   -2.2221   -1.7449    1.1776 H   0  0  0  0  0  0
   -3.8377    1.7981   -0.6951 H   0  0  0  0  0  0
    1.4047   -1.8058   -2.1188 H   0  0  0  0  0  0
    2.2547   -1.3616    2.0911 H   0  0  0  0  0  0
    6.4925   -2.2895    0.3072 H   0  0  0  0  0  0
    5.5283   -3.7298    0.2798 H   0  0  0  0  0  0
    5.5216   -0.2185   -0.5491 H   0  0  0  0  0  0
    3.8549    0.0992   -0.2396 H   0  0  0  0  0  0
   -6.0223    0.6786   -0.9030 H   0  0  0  0  0  0
   -6.3399   -1.6196   -0.1052 H   0  0  0  0  0  0
    6.9549   -3.5598   -1.7664 H   0  0  0  0  0  0
    5.2595   -3.5015   -2.2304 H   0  0  0  0  0  0
    6.2139   -2.0200   -2.1877 H   0  0  0  0  0  0
    5.2363    0.9303    1.6374 H   0  0  0  0  0  0
    4.2494   -0.3892    2.2433 H   0  0  0  0  0  0
    5.9494   -0.6552    1.8864 H   0  0  0  0  0  0
   -5.5064   -4.8324    1.3889 H   0  0  0  0  0  0
   -6.3919   -3.3183    1.5277 H   0  0  0  0  0  0
   -5.9126   -3.9381   -0.0709 H   0  0  0  0  0  0
   -0.0607    3.9043   -0.3042 N   0  3  0  0  0  0
   -0.1253    3.3819   -1.1665 H   0  0  0  0  0  0
  1 23  1  0  0  0
  1 28  1  0  0  0
  2 20  2  0  0  0
  3 20  1  0  0  0
  3 21  1  0  0  0
  3 22  1  0  0  0
  4  6  1  0  0  0
  4 29  1  0  0  0
  4 30  1  0  0  0
  4 61  1  0  0  0
  5  7  1  0  0  0
  5 31  1  0  0  0
  5 32  1  0  0  0
  5 61  1  0  0  0
  6  7  1  0  0  0
  6 33  1  0  0  0
  6 34  1  0  0  0
  7 35  1  0  0  0
  7 36  1  0  0  0
  8  9  1  0  0  0
  8 37  1  0  0  0
  8 38  1  0  0  0
  8 61  1  0  0  0
  9 10  2  0  0  0
  9 39  1  0  0  0
 10 11  1  0  0  0
 10 12  1  0  0  0
 11 13  2  0  0  0
 11 14  1  0  0  0
 12 16  2  0  0  0
 12 17  1  0  0  0
 13 18  1  0  0  0
 13 40  1  0  0  0
 14 19  2  0  0  0
 14 41  1  0  0  0
 15 18  2  0  0  0
 15 19  1  0  0  0
 15 20  1  0  0  0
 16 23  1  0  0  0
 16 42  1  0  0  0
 17 24  2  0  0  0
 17 43  1  0  0  0
 18 44  1  0  0  0
 19 45  1  0  0  0
 21 26  1  0  0  0
 21 46  1  0  0  0
 21 47  1  0  0  0
 22 27  1  0  0  0
 22 48  1  0  0  0
 22 49  1  0  0  0
 23 25  2  0  0  0
 24 25  1  0  0  0
 24 50  1  0  0  0
 25 51  1  0  0  0
 26 52  1  0  0  0
 26 53  1  0  0  0
 26 54  1  0  0  0
 27 55  1  0  0  0
 27 56  1  0  0  0
 27 57  1  0  0  0
 28 58  1  0  0  0
 28 59  1  0  0  0
 28 60  1  0  0  0
 61 62  1  0  0  0
M  CHG  1  61   1
M  END
> <LID>
L016375

> <PC_CID>
44213941

> <Names>


> <CAS_Numbers>


$$$$
9872822
                    3D
 Structure written by MMmdl.
 59 61  0  0  1  0            999 V2000
   -3.5984    2.9786    1.2256 O   0  0  0  0  0  0
    3.6768    4.4263   -0.8554 O   0  0  0  0  0  0
   -4.5983    1.0710    0.4828 N   0  0  0  0  0  0
    0.0081   -4.5085   -0.0673 C   0  0  0  0  0  0
    2.3844   -4.2870   -0.1935 C   0  0  0  0  0  0
    0.6456   -5.8994    0.0472 C   0  0  0  0  0  0
    2.0850   -5.6270    0.4703 C   0  0  0  0  0  0
    0.9503   -2.4607   -1.1262 C   0  0  0  0  0  0
    2.0024   -1.3736   -0.9563 C   0  0  0  0  0  0
    1.7999   -0.0988   -0.5547 C   0  0  0  0  0  0
    0.4459    0.3856   -0.2379 C   0  0  0  0  0  0
    2.9401    0.8330   -0.3995 C   0  0  0  0  0  0
    0.0897    0.6610    1.0986 C   0  0  0  0  0  0
   -0.4924    0.6203   -1.2656 C   0  0  0  0  0  0
   -2.1513    1.3292    0.3853 C   0  0  0  0  0  0
    2.7787    2.2066   -0.6962 C   0  0  0  0  0  0
   -1.2001    1.1332    1.4085 C   0  0  0  0  0  0
   -1.7823    1.0925   -0.9571 C   0  0  0  0  0  0
    4.2104    0.3793    0.0292 C   0  0  0  0  0  0
   -3.5154    1.8548    0.7286 C   0  0  0  0  0  0
   -5.9567    1.5721    0.7383 C   0  0  0  0  0  0
   -4.5434   -0.3347    0.0477 C   0  0  0  0  0  0
    3.8552    3.1055   -0.5640 C   0  0  0  0  0  0
    5.2878    1.2763    0.1628 C   0  0  0  0  0  0
    5.1119    2.6403   -0.1336 C   0  0  0  0  0  0
   -6.5119    2.3253   -0.4786 C   0  0  0  0  0  0
   -4.2433   -1.2818    1.2190 C   0  0  0  0  0  0
   -0.6279   -4.4519   -0.9523 H   0  0  0  0  0  0
   -0.6157   -4.2909    0.8003 H   0  0  0  0  0  0
    2.6519   -4.4498   -1.2391 H   0  0  0  0  0  0
    3.2081   -3.7591    0.2883 H   0  0  0  0  0  0
    0.1176   -6.5495    0.7457 H   0  0  0  0  0  0
    0.6390   -6.3868   -0.9288 H   0  0  0  0  0  0
    2.7743   -6.4154    0.1665 H   0  0  0  0  0  0
    2.1421   -5.5272    1.5552 H   0  0  0  0  0  0
    1.0257   -2.8792   -2.1306 H   0  0  0  0  0  0
   -0.0556   -2.0537   -1.0334 H   0  0  0  0  0  0
    3.0073   -1.6939   -1.1894 H   0  0  0  0  0  0
    0.8070    0.5091    1.8920 H   0  0  0  0  0  0
   -0.2231    0.4385   -2.2960 H   0  0  0  0  0  0
   -1.4586    1.3388    2.4375 H   0  0  0  0  0  0
   -2.4877    1.2722   -1.7558 H   0  0  0  0  0  0
    1.8235    2.5822   -1.0337 H   0  0  0  0  0  0
    4.3701   -0.6603    0.2739 H   0  0  0  0  0  0
   -6.6237    0.7462    0.9898 H   0  0  0  0  0  0
   -5.9754    2.2218    1.6150 H   0  0  0  0  0  0
   -5.4961   -0.6194   -0.4011 H   0  0  0  0  0  0
   -3.8188   -0.4859   -0.7495 H   0  0  0  0  0  0
    6.2507    0.9171    0.4952 H   0  0  0  0  0  0
    5.9419    3.3237   -0.0294 H   0  0  0  0  0  0
   -7.5249    2.6786   -0.2858 H   0  0  0  0  0  0
   -5.8991    3.1942   -0.7208 H   0  0  0  0  0  0
   -6.5462    1.6828   -1.3589 H   0  0  0  0  0  0
   -4.2475   -2.3199    0.8864 H   0  0  0  0  0  0
   -3.2659   -1.0814    1.6579 H   0  0  0  0  0  0
   -4.9908   -1.1834    2.0067 H   0  0  0  0  0  0
    4.4577    4.9442   -0.7337 H   0  0  0  0  0  0
    1.1183   -3.5264   -0.1104 N   0  3  0  0  0  0
    1.1179   -3.0756    0.7937 H   0  0  0  0  0  0
  1 20  2  0  0  0
  2 23  1  0  0  0
  2 57  1  0  0  0
  3 20  1  0  0  0
  3 21  1  0  0  0
  3 22  1  0  0  0
  4  6  1  0  0  0
  4 28  1  0  0  0
  4 29  1  0  0  0
  4 58  1  0  0  0
  5  7  1  0  0  0
  5 30  1  0  0  0
  5 31  1  0  0  0
  5 58  1  0  0  0
  6  7  1  0  0  0
  6 32  1  0  0  0
  6 33  1  0  0  0
  7 34  1  0  0  0
  7 35  1  0  0  0
  8  9  1  0  0  0
  8 36  1  0  0  0
  8 37  1  0  0  0
  8 58  1  0  0  0
  9 10  2  0  0  0
  9 38  1  0  0  0
 10 11  1  0  0  0
 10 12  1  0  0  0
 11 13  2  0  0  0
 11 14  1  0  0  0
 12 16  2  0  0  0
 12 19  1  0  0  0
 13 17  1  0  0  0
 13 39  1  0  0  0
 14 18  2  0  0  0
 14 40  1  0  0  0
 15 17  2  0  0  0
 15 18  1  0  0  0
 15 20  1  0  0  0
 16 23  1  0  0  0
 16 43  1  0  0  0
 17 41  1  0  0  0
 18 42  1  0  0  0
 19 24  2  0  0  0
 19 44  1  0  0  0
 21 26  1  0  0  0
 21 45  1  0  0  0
 21 46  1  0  0  0
 22 27  1  0  0  0
 22 47  1  0  0  0
 22 48  1  0  0  0
 23 25  2  0  0  0
 24 25  1  0  0  0
 24 49  1  0  0  0
 25 50  1  0  0  0
 26 51  1  0  0  0
 26 52  1  0  0  0
 26 53  1  0  0  0
 27 54  1  0  0  0
 27 55  1  0  0  0
 27 56  1  0  0  0
 58 59  1  0  0  0
M  CHG  1  58   1
M  END
> <LID>
L016374

> <PC_CID>
9872822

> <Names>


> <CAS_Numbers>


$$$$
11224630
                    3D
 Structure written by MMmdl.
 72 75  0  0  1  0            999 V2000
   -1.9330   -0.3360   -0.5568 O   0  0  0  0  0  0
    4.6356   -0.4690    2.1862 O   0  0  0  0  0  0
    3.9161   -2.2356    0.9453 N   0  0  0  0  0  0
   -2.0101   -1.7513   -0.7082 C   0  0  0  0  0  0
   -1.1434   -2.1243   -1.9236 C   0  0  0  0  0  0
   -1.4876   -2.4836    0.5482 C   0  0  0  0  0  0
   -1.1285   -3.6448   -2.1532 C   0  0  0  0  0  0
   -1.4770   -4.0065    0.3380 C   0  0  0  0  0  0
   -0.6539   -4.3974   -0.8994 C   0  0  0  0  0  0
   -0.9881    3.3381   -0.2519 C   0  0  0  0  0  0
   -2.7094    0.2906    0.3981 C   0  0  0  0  0  0
   -1.0056    2.1453    0.4012 C   0  0  0  0  0  0
    0.2785    4.0632   -0.7029 C   0  0  0  0  0  0
   -2.2382    4.1268   -0.6394 C   0  0  0  0  0  0
   -2.2674    1.5462    0.8847 C   0  0  0  0  0  0
    0.2303    4.3805   -2.2062 C   0  0  0  0  0  0
   -2.2381    4.4584   -2.1426 C   0  0  0  0  0  0
    0.2258    1.3735    0.6611 C   0  0  0  0  0  0
   -3.9227   -0.2514    0.8931 C   0  0  0  0  0  0
   -3.0135    2.2136    1.8821 C   0  0  0  0  0  0
   -4.6664    0.4304    1.8738 C   0  0  0  0  0  0
   -4.2096    1.6617    2.3733 C   0  0  0  0  0  0
    0.5892    1.0383    1.9823 C   0  0  0  0  0  0
    1.0283    0.9149   -0.4067 C   0  0  0  0  0  0
    2.5408   -0.1913    1.1639 C   0  0  0  0  0  0
    1.7420    0.2690    2.2324 C   0  0  0  0  0  0
    2.1865    0.1556   -0.1577 C   0  0  0  0  0  0
    3.7856   -0.9816    1.4566 C   0  0  0  0  0  0
    5.1106   -3.0375    1.2543 C   0  0  0  0  0  0
    2.8856   -2.9615    0.1834 C   0  0  0  0  0  0
    5.0127   -3.7027    2.6364 C   0  0  0  0  0  0
    3.2248   -3.0662   -1.3141 C   0  0  0  0  0  0
   -3.0324   -2.0558   -0.9322 H   0  0  0  0  0  0
   -0.1233   -1.7681   -1.7718 H   0  0  0  0  0  0
   -1.5173   -1.6202   -2.8152 H   0  0  0  0  0  0
   -2.0982   -2.2489    1.4195 H   0  0  0  0  0  0
   -0.4802   -2.1365    0.7811 H   0  0  0  0  0  0
   -2.1300   -3.9821   -2.4234 H   0  0  0  0  0  0
   -0.4827   -3.8871   -2.9977 H   0  0  0  0  0  0
   -1.0743   -4.5010    1.2224 H   0  0  0  0  0  0
   -2.5008   -4.3646    0.2230 H   0  0  0  0  0  0
    0.3971   -4.1783   -0.7179 H   0  0  0  0  0  0
   -0.7179   -5.4733   -1.0646 H   0  0  0  0  0  0
    1.1916    3.5220   -0.4646 H   0  0  0  0  0  0
    0.3427    4.9956   -0.1405 H   0  0  0  0  0  0
   -2.2573    5.0478   -0.0555 H   0  0  0  0  0  0
   -3.1591    3.5955   -0.4058 H   0  0  0  0  0  0
    0.2509    3.4571   -2.7868 H   0  0  0  0  0  0
    1.1057    4.9606   -2.4990 H   0  0  0  0  0  0
   -3.0893    5.0933   -2.3899 H   0  0  0  0  0  0
   -2.3450    3.5431   -2.7267 H   0  0  0  0  0  0
   -4.3071   -1.1942    0.5374 H   0  0  0  0  0  0
   -2.6675    3.1596    2.2726 H   0  0  0  0  0  0
   -5.5869    0.0050    2.2459 H   0  0  0  0  0  0
   -4.7758    2.1826    3.1314 H   0  0  0  0  0  0
   -0.0177    1.3717    2.8116 H   0  0  0  0  0  0
    0.7584    1.1513   -1.4255 H   0  0  0  0  0  0
    2.0078    0.0284    3.2518 H   0  0  0  0  0  0
    2.8017   -0.1496   -0.9888 H   0  0  0  0  0  0
    5.2541   -3.8131    0.5022 H   0  0  0  0  0  0
    6.0084   -2.4191    1.2012 H   0  0  0  0  0  0
    2.7895   -3.9675    0.5940 H   0  0  0  0  0  0
    1.8967   -2.5224    0.3077 H   0  0  0  0  0  0
    5.8969   -4.3084    2.8358 H   0  0  0  0  0  0
    4.9350   -2.9629    3.4335 H   0  0  0  0  0  0
    4.1428   -4.3567    2.7006 H   0  0  0  0  0  0
    2.4205   -3.5609   -1.8581 H   0  0  0  0  0  0
    3.3751   -2.0907   -1.7719 H   0  0  0  0  0  0
    4.1311   -3.6472   -1.4825 H   0  0  0  0  0  0
   -0.9905    5.1430   -2.5455 N   0  3  0  0  0  0
   -1.0112    5.3053   -3.5424 H   0  0  0  0  0  0
   -0.9501    6.0349   -2.0729 H   0  0  0  0  0  0
  1  4  1  0  0  0
  1 11  1  0  0  0
  2 28  2  0  0  0
  3 28  1  0  0  0
  3 29  1  0  0  0
  3 30  1  0  0  0
  4  5  1  0  0  0
  4  6  1  0  0  0
  4 33  1  0  0  0
  5  7  1  0  0  0
  5 34  1  0  0  0
  5 35  1  0  0  0
  6  8  1  0  0  0
  6 36  1  0  0  0
  6 37  1  0  0  0
  7  9  1  0  0  0
  7 38  1  0  0  0
  7 39  1  0  0  0
  8  9  1  0  0  0
  8 40  1  0  0  0
  8 41  1  0  0  0
  9 42  1  0  0  0
  9 43  1  0  0  0
 10 12  2  0  0  0
 10 13  1  0  0  0
 10 14  1  0  0  0
 11 15  1  0  0  0
 11 19  2  0  0  0
 12 15  1  0  0  0
 12 18  1  0  0  0
 13 16  1  0  0  0
 13 44  1  0  0  0
 13 45  1  0  0  0
 14 17  1  0  0  0
 14 46  1  0  0  0
 14 47  1  0  0  0
 15 20  2  0  0  0
 16 48  1  0  0  0
 16 49  1  0  0  0
 16 70  1  0  0  0
 17 50  1  0  0  0
 17 51  1  0  0  0
 17 70  1  0  0  0
 18 23  2  0  0  0
 18 24  1  0  0  0
 19 21  1  0  0  0
 19 52  1  0  0  0
 20 22  1  0  0  0
 20 53  1  0  0  0
 21 22  2  0  0  0
 21 54  1  0  0  0
 22 55  1  0  0  0
 23 26  1  0  0  0
 23 56  1  0  0  0
 24 27  2  0  0  0
 24 57  1  0  0  0
 25 26  2  0  0  0
 25 27  1  0  0  0
 25 28  1  0  0  0
 26 58  1  0  0  0
 27 59  1  0  0  0
 29 31  1  0  0  0
 29 60  1  0  0  0
 29 61  1  0  0  0
 30 32  1  0  0  0
 30 62  1  0  0  0
 30 63  1  0  0  0
 31 64  1  0  0  0
 31 65  1  0  0  0
 31 66  1  0  0  0
 32 67  1  0  0  0
 32 68  1  0  0  0
 32 69  1  0  0  0
 70 71  1  0  0  0
 70 72  1  0  0  0
M  CHG  1  70   1
M  END
> <LID>
L023472

> <PC_CID>
11224630

> <Names>


> <CAS_Numbers>


$$$$
10051350
                    3D
 Structure written by MMmdl.
 74 78  0  0  1  0            999 V2000
    2.3783   -1.9345    1.0078 O   0  0  0  0  0  0
    3.7288    1.2400    0.1594 N   0  0  0  0  0  0
    4.3791   -0.9699    0.5100 N   0  0  0  0  0  0
    6.1161   -5.5705   -2.8785 N   0  0  0  0  0  0
    2.5206    0.4598    0.5030 C   0  0  0  0  0  0
    1.8638    0.9507    1.8269 C   0  0  0  0  0  0
    1.4849    0.4441   -0.6600 C   0  0  0  0  0  0
    0.4826    0.3254    2.1058 C   0  0  0  0  0  0
    0.1202   -0.1585   -0.2718 C   0  0  0  0  0  0
    3.0655   -0.9580    0.7087 C   0  0  0  0  0  0
    4.8888    0.3397    0.1662 C   0  0  0  0  0  0
   -1.8163    0.0519    1.2618 C   0  0  0  0  0  0
    3.8537    2.5735   -0.1320 C   0  0  0  0  0  0
    5.2639   -2.1287    0.5851 C   0  0  0  0  0  0
   -2.8673    0.7159    0.3496 C   0  0  0  0  0  0
    5.2309   -2.9458   -0.7157 C   0  0  0  0  0  0
   -4.3215    0.3609    0.7367 C   0  0  0  0  0  0
    5.1289    3.1206   -0.4387 C   0  0  0  0  0  0
    2.7498    3.4665   -0.1454 C   0  0  0  0  0  0
    6.1631   -4.1611   -0.6617 C   0  0  0  0  0  0
   -5.3575    1.1584   -0.0500 C   0  0  0  0  0  0
   -4.6145   -1.1367    0.6973 C   0  0  0  0  0  0
    5.2929    4.4857   -0.7425 C   0  0  0  0  0  0
    2.9104    4.8322   -0.4488 C   0  0  0  0  0  0
    4.1828    5.3455   -0.7482 C   0  0  0  0  0  0
   -5.3179    1.2184   -1.4619 C   0  0  0  0  0  0
   -5.1977   -1.7656    1.8194 C   0  0  0  0  0  0
   -6.3822    1.8446    0.6388 C   0  0  0  0  0  0
   -4.3129   -1.9099   -0.4469 C   0  0  0  0  0  0
    6.1370   -4.9502   -1.9023 C   0  0  0  0  0  0
   -6.2849    1.9567   -2.1714 C   0  0  0  0  0  0
   -5.4712   -3.1471    1.8005 C   0  0  0  0  0  0
   -7.3491    2.5829   -0.0709 C   0  0  0  0  0  0
   -4.5862   -3.2913   -0.4654 C   0  0  0  0  0  0
   -7.3005    2.6400   -1.4764 C   0  0  0  0  0  0
   -5.1648   -3.9107    0.6584 C   0  0  0  0  0  0
    1.7464    2.0302    1.8445 H   0  0  0  0  0  0
    2.5244    0.7390    2.6695 H   0  0  0  0  0  0
    1.8884   -0.1122   -1.5080 H   0  0  0  0  0  0
    1.3047    1.4394   -1.0554 H   0  0  0  0  0  0
    0.0547    0.8140    2.9821 H   0  0  0  0  0  0
    0.5689   -0.7312    2.3603 H   0  0  0  0  0  0
    0.1949   -1.2347   -0.1146 H   0  0  0  0  0  0
   -0.5609   -0.0266   -1.1114 H   0  0  0  0  0  0
    5.3630    0.3037   -0.8160 H   0  0  0  0  0  0
    5.6238    0.6554    0.9084 H   0  0  0  0  0  0
   -1.8763   -1.0363    1.2100 H   0  0  0  0  0  0
   -2.0524    0.3214    2.2923 H   0  0  0  0  0  0
    6.2816   -1.7913    0.7855 H   0  0  0  0  0  0
    4.9762   -2.7553    1.4309 H   0  0  0  0  0  0
   -2.7461    1.7985    0.4095 H   0  0  0  0  0  0
   -2.6837    0.4509   -0.6900 H   0  0  0  0  0  0
    4.2128   -3.2838   -0.9138 H   0  0  0  0  0  0
    5.5146   -2.3102   -1.5555 H   0  0  0  0  0  0
   -4.4293    0.6702    1.7776 H   0  0  0  0  0  0
    6.0186    2.5101   -0.4501 H   0  0  0  0  0  0
    1.7475    3.1432    0.0739 H   0  0  0  0  0  0
    7.1923   -3.8462   -0.4885 H   0  0  0  0  0  0
    5.8826   -4.8215    0.1591 H   0  0  0  0  0  0
    6.2749    4.8726   -0.9717 H   0  0  0  0  0  0
    2.0522    5.4880   -0.4514 H   0  0  0  0  0  0
    4.3066    6.3930   -0.9810 H   0  0  0  0  0  0
   -4.5498    0.6980   -2.0133 H   0  0  0  0  0  0
   -5.4403   -1.1916    2.7018 H   0  0  0  0  0  0
   -6.4345    1.8071    1.7171 H   0  0  0  0  0  0
   -3.8710   -1.4516   -1.3185 H   0  0  0  0  0  0
   -6.2483    1.9975   -3.2501 H   0  0  0  0  0  0
   -5.9174   -3.6209    2.6625 H   0  0  0  0  0  0
   -8.1293    3.1047    0.4636 H   0  0  0  0  0  0
   -4.3530   -3.8759   -1.3431 H   0  0  0  0  0  0
   -8.0424    3.2055   -2.0208 H   0  0  0  0  0  0
   -5.3752   -4.9700    0.6437 H   0  0  0  0  0  0
   -0.4319    0.4889    0.9471 N   0  3  0  0  0  0
   -0.4806    1.4810    0.7633 H   0  0  0  0  0  0
  1 10  2  0  0  0
  2  5  1  0  0  0
  2 11  1  0  0  0
  2 13  1  0  0  0
  3 10  1  0  0  0
  3 11  1  0  0  0
  3 14  1  0  0  0
  4 30  3  0  0  0
  5  6  1  0  0  0
  5  7  1  0  0  0
  5 10  1  0  0  0
  6  8  1  0  0  0
  6 37  1  0  0  0
  6 38  1  0  0  0
  7  9  1  0  0  0
  7 39  1  0  0  0
  7 40  1  0  0  0
  8 41  1  0  0  0
  8 42  1  0  0  0
  8 73  1  0  0  0
  9 43  1  0  0  0
  9 44  1  0  0  0
  9 73  1  0  0  0
 11 45  1  0  0  0
 11 46  1  0  0  0
 12 15  1  0  0  0
 12 47  1  0  0  0
 12 48  1  0  0  0
 12 73  1  0  0  0
 13 18  2  0  0  0
 13 19  1  0  0  0
 14 16  1  0  0  0
 14 49  1  0  0  0
 14 50  1  0  0  0
 15 17  1  0  0  0
 15 51  1  0  0  0
 15 52  1  0  0  0
 16 20  1  0  0  0
 16 53  1  0  0  0
 16 54  1  0  0  0
 17 21  1  0  0  0
 17 22  1  0  0  0
 17 55  1  0  0  0
 18 23  1  0  0  0
 18 56  1  0  0  0
 19 24  2  0  0  0
 19 57  1  0  0  0
 20 30  1  0  0  0
 20 58  1  0  0  0
 20 59  1  0  0  0
 21 26  2  0  0  0
 21 28  1  0  0  0
 22 27  2  0  0  0
 22 29  1  0  0  0
 23 25  2  0  0  0
 23 60  1  0  0  0
 24 25  1  0  0  0
 24 61  1  0  0  0
 25 62  1  0  0  0
 26 31  1  0  0  0
 26 63  1  0  0  0
 27 32  1  0  0  0
 27 64  1  0  0  0
 28 33  2  0  0  0
 28 65  1  0  0  0
 29 34  2  0  0  0
 29 66  1  0  0  0
 31 35  2  0  0  0
 31 67  1  0  0  0
 32 36  2  0  0  0
 32 68  1  0  0  0
 33 35  1  0  0  0
 33 69  1  0  0  0
 34 36  1  0  0  0
 34 70  1  0  0  0
 35 71  1  0  0  0
 36 72  1  0  0  0
 73 74  1  0  0  0
M  CHG  1  73   1
M  END
> <LID>
L022593

> <PC_CID>
10051350

> <Names>


> <CAS_Numbers>


$$$$
23435926
                    3D
 Structure written by MMmdl.
 77 79  0  0  1  0            999 V2000
   -3.7146   -2.9423    1.2407 O   0  0  0  0  0  0
    6.8123   -0.5019   -0.5557 O   0  0  0  0  0  0
   -2.6941   -0.9448    1.5442 N   0  0  0  0  0  0
    6.0069   -2.5766   -0.0692 N   0  0  0  0  0  0
   -1.3400   -1.5228    1.5320 C   0  0  0  0  0  0
   -2.6524    0.5255    1.5947 C   0  0  0  0  0  0
   -0.5647   -1.0444    0.2930 C   0  0  0  0  0  0
   -1.9168    1.0919    0.3662 C   0  0  0  0  0  0
   -0.5252    0.4805    0.2165 C   0  0  0  0  0  0
   -3.7992   -1.7225    1.3840 C   0  0  0  0  0  0
   -5.2256   -1.1328    1.3966 C   0  0  2  0  0  0
    0.6110    1.2057    0.0474 C   0  0  0  0  0  0
   -5.5700   -0.3712    0.0955 C   0  0  0  0  0  0
   -7.0827   -0.2234   -0.1433 C   0  0  0  0  0  0
    1.9333    0.5640   -0.0346 C   0  0  0  0  0  0
    0.5912    2.6730   -0.0863 C   0  0  0  0  0  0
   -7.4026    0.4944   -1.4639 C   0  0  0  0  0  0
    2.5266   -0.0042    1.1131 C   0  0  0  0  0  0
    2.6443    0.5594   -1.2527 C   0  0  0  0  0  0
   -8.9121    0.6295   -1.7125 C   0  0  0  0  0  0
    1.2370    3.4797    0.8754 C   0  0  0  0  0  0
   -0.0342    3.2875   -1.1940 C   0  0  0  0  0  0
    3.8005   -0.5986    1.0361 C   0  0  0  0  0  0
    3.9187   -0.0344   -1.3313 C   0  0  0  0  0  0
    4.4948   -0.6368   -0.1930 C   0  0  0  0  0  0
    1.2405    4.8819    0.7434 C   0  0  0  0  0  0
   -0.0315    4.6896   -1.3269 C   0  0  0  0  0  0
    0.6045    5.4876   -0.3569 C   0  0  0  0  0  0
    5.8659   -1.2421   -0.2850 C   0  0  0  0  0  0
    7.3394   -3.1979   -0.0753 C   0  0  0  0  0  0
    4.8954   -3.5294    0.0873 C   0  0  0  0  0  0
    7.9909   -3.1349    1.3132 C   0  0  0  0  0  0
    4.2830   -3.9150   -1.2674 C   0  0  0  0  0  0
   -1.3348   -2.6131    1.5629 H   0  0  0  0  0  0
   -0.8160   -1.2073    2.4356 H   0  0  0  0  0  0
   -2.1217    0.8220    2.5008 H   0  0  0  0  0  0
   -3.6240    1.0022    1.6684 H   0  0  0  0  0  0
    0.4258   -1.4952    0.2870 H   0  0  0  0  0  0
   -1.0618   -1.4112   -0.6059 H   0  0  0  0  0  0
   -2.4856    0.8704   -0.5376 H   0  0  0  0  0  0
   -1.8845    2.1767    0.4525 H   0  0  0  0  0  0
   -5.8965   -1.9924    1.4463 H   0  0  0  0  0  0
   -5.1086    0.6156    0.0851 H   0  0  0  0  0  0
   -5.1436   -0.9058   -0.7553 H   0  0  0  0  0  0
   -7.5476   -1.2103   -0.1495 H   0  0  0  0  0  0
   -7.5341    0.3257    0.6838 H   0  0  0  0  0  0
   -6.9437    1.4842   -1.4575 H   0  0  0  0  0  0
   -6.9462   -0.0522   -2.2906 H   0  0  0  0  0  0
   -6.4896   -0.0669    2.6080 H   0  0  0  0  0  0
   -5.3478   -0.9274    3.4280 H   0  0  0  0  0  0
    2.0029    0.0156    2.0578 H   0  0  0  0  0  0
    2.2118    1.0125   -2.1330 H   0  0  0  0  0  0
   -9.3826   -0.3542   -1.7342 H   0  0  0  0  0  0
   -9.3810    1.1926   -0.9047 H   0  0  0  0  0  0
    1.7311    3.0232    1.7208 H   0  0  0  0  0  0
   -0.5186    2.6817   -1.9459 H   0  0  0  0  0  0
    4.2429   -1.0246    1.9252 H   0  0  0  0  0  0
    4.4505   -0.0303   -2.2719 H   0  0  0  0  0  0
    1.7336    5.4926    1.4854 H   0  0  0  0  0  0
   -0.5145    5.1527   -2.1747 H   0  0  0  0  0  0
    0.6083    6.5629   -0.4590 H   0  0  0  0  0  0
  -10.1873    1.3856   -3.1224 H   0  0  0  0  0  0
   -8.7854    2.2388   -2.9719 H   0  0  0  0  0  0
    7.2706   -4.2380   -0.3973 H   0  0  0  0  0  0
    7.9897   -2.7211   -0.8107 H   0  0  0  0  0  0
    5.2513   -4.4330    0.5842 H   0  0  0  0  0  0
    4.1220   -3.1482    0.7506 H   0  0  0  0  0  0
    8.9708   -3.6124    1.3028 H   0  0  0  0  0  0
    8.1289   -2.1039    1.6403 H   0  0  0  0  0  0
    7.3808   -3.6450    2.0592 H   0  0  0  0  0  0
    3.4895   -4.6509   -1.1365 H   0  0  0  0  0  0
    3.8502   -3.0516   -1.7728 H   0  0  0  0  0  0
    5.0323   -4.3500   -1.9294 H   0  0  0  0  0  0
   -5.5212   -0.3531    2.6149 N   0  3  0  0  0  0
   -4.9280    0.4632    2.6504 H   0  0  0  0  0  0
   -9.1887    1.3128   -2.9879 N   0  3  0  0  0  0
   -8.7869    0.7850   -3.7497 H   0  0  0  0  0  0
  1 10  2  0  0  0
  2 29  2  0  0  0
  3  5  1  0  0  0
  3  6  1  0  0  0
  3 10  1  0  0  0
  4 29  1  0  0  0
  4 30  1  0  0  0
  4 31  1  0  0  0
  5  7  1  0  0  0
  5 34  1  0  0  0
  5 35  1  0  0  0
  6  8  1  0  0  0
  6 36  1  0  0  0
  6 37  1  0  0  0
  7  9  1  0  0  0
  7 38  1  0  0  0
  7 39  1  0  0  0
  8  9  1  0  0  0
  8 40  1  0  0  0
  8 41  1  0  0  0
  9 12  2  0  0  0
 10 11  1  0  0  0
 11 13  1  0  0  0
 11 42  1  0  0  0
 11 74  1  0  0  0
 12 15  1  0  0  0
 12 16  1  0  0  0
 13 14  1  0  0  0
 13 43  1  0  0  0
 13 44  1  0  0  0
 14 17  1  0  0  0
 14 45  1  0  0  0
 14 46  1  0  0  0
 15 18  2  0  0  0
 15 19  1  0  0  0
 16 21  2  0  0  0
 16 22  1  0  0  0
 17 20  1  0  0  0
 17 47  1  0  0  0
 17 48  1  0  0  0
 18 23  1  0  0  0
 18 51  1  0  0  0
 19 24  2  0  0  0
 19 52  1  0  0  0
 20 53  1  0  0  0
 20 54  1  0  0  0
 20 76  1  0  0  0
 21 26  1  0  0  0
 21 55  1  0  0  0
 22 27  2  0  0  0
 22 56  1  0  0  0
 23 25  2  0  0  0
 23 57  1  0  0  0
 24 25  1  0  0  0
 24 58  1  0  0  0
 25 29  1  0  0  0
 26 28  2  0  0  0
 26 59  1  0  0  0
 27 28  1  0  0  0
 27 60  1  0  0  0
 28 61  1  0  0  0
 30 32  1  0  0  0
 30 64  1  0  0  0
 30 65  1  0  0  0
 31 33  1  0  0  0
 31 66  1  0  0  0
 31 67  1  0  0  0
 32 68  1  0  0  0
 32 69  1  0  0  0
 32 70  1  0  0  0
 33 71  1  0  0  0
 33 72  1  0  0  0
 33 73  1  0  0  0
 49 74  1  0  0  0
 50 74  1  0  0  0
 62 76  1  0  0  0
 63 76  1  0  0  0
 74 75  1  0  0  0
 76 77  1  0  0  0
M  CHG  2  74   1  76   1
M  END
> <LID>
L018202

> <PC_CID>
23435926

> <Names>


> <CAS_Numbers>


$$$$
42800
                    3D
 Structure written by MMmdl.
 48 51  0  0  1  0            999 V2000
   -0.5389   -2.7553   -0.2264 O   0  0  0  0  0  0
    4.7247    0.3597    1.7406 O   0  0  0  0  0  0
    0.8088    1.1026   -1.1879 C   0  0  1  0  0  0
    0.0850    0.2029   -2.2126 C   0  0  1  0  0  0
   -0.9016   -0.6961   -1.4395 C   0  0  1  0  0  0
   -0.2187    2.0043   -0.4455 C   0  0  1  0  0  0
   -3.0323   -1.0165    1.2532 C   0  0  0  0  0  0
   -1.3118    1.1457    0.2356 C   0  0  0  0  0  0
   -3.1043   -0.5674   -0.2009 C   0  0  0  0  0  0
   -3.6619   -0.1965    2.3577 C   0  0  0  0  0  0
   -4.2825   -1.5072    1.9470 C   0  0  0  0  0  0
    1.6031    0.2176   -0.2258 C   0  0  0  0  0  0
   -0.1267   -1.6222   -0.4712 C   0  0  0  0  0  0
    0.4515    2.9823    0.5449 C   0  0  0  0  0  0
   -0.5677    0.9595   -3.3851 C   0  0  0  0  0  0
    1.1330   -1.0784    0.1218 C   0  0  0  0  0  0
    2.8182    0.6899    0.3159 C   0  0  0  0  0  0
   -0.4774    4.0969    1.0463 C   0  0  0  0  0  0
    1.8812   -1.8678    1.0243 C   0  0  0  0  0  0
    3.5553   -0.1052    1.2137 C   0  0  0  0  0  0
    3.0844   -1.3821    1.5697 C   0  0  0  0  0  0
    1.5170    1.7358   -1.7248 H   0  0  0  0  0  0
    0.8388   -0.4376   -2.6759 H   0  0  0  0  0  0
   -1.4391   -1.3168   -2.1572 H   0  0  0  0  0  0
   -0.7069    2.6250   -1.1967 H   0  0  0  0  0  0
   -2.1296   -1.5607    1.5178 H   0  0  0  0  0  0
   -0.9040    0.6497    1.1171 H   0  0  0  0  0  0
   -2.1168    1.7890    0.5912 H   0  0  0  0  0  0
   -3.3164   -1.4321   -0.8309 H   0  0  0  0  0  0
   -3.9574    0.1029   -0.3128 H   0  0  0  0  0  0
   -3.1428   -0.1623    3.3135 H   0  0  0  0  0  0
   -4.1866    0.7158    2.0806 H   0  0  0  0  0  0
   -5.2200   -1.4665    1.3958 H   0  0  0  0  0  0
   -4.1805   -2.3478    2.6306 H   0  0  0  0  0  0
    0.8509    2.4395    1.4022 H   0  0  0  0  0  0
    1.3067    3.4517    0.0573 H   0  0  0  0  0  0
    0.1584    1.5972   -3.8900 H   0  0  0  0  0  0
   -0.9559    0.2597   -4.1258 H   0  0  0  0  0  0
   -1.3997    1.5885   -3.0706 H   0  0  0  0  0  0
    3.1817    1.6711    0.0469 H   0  0  0  0  0  0
    0.0686    4.7939    1.6825 H   0  0  0  0  0  0
   -0.8957    4.6672    0.2165 H   0  0  0  0  0  0
   -1.3042    3.7004    1.6351 H   0  0  0  0  0  0
    1.5431   -2.8555    1.3037 H   0  0  0  0  0  0
    3.6485   -1.9945    2.2580 H   0  0  0  0  0  0
    4.9554    1.2238    1.4359 H   0  0  0  0  0  0
   -1.8964    0.1458   -0.7023 N   0  3  2  0  0  0
   -2.2745    0.7166   -1.4448 H   0  0  0  0  0  0
  1 13  2  0  0  0
  2 20  1  0  0  0
  2 46  1  0  0  0
  3  4  1  0  0  0
  3  6  1  0  0  0
  3 12  1  0  0  0
  3 22  1  0  0  0
  4  5  1  0  0  0
  4 15  1  0  0  0
  4 23  1  0  0  0
  5 13  1  0  0  0
  5 24  1  0  0  0
  5 47  1  0  0  0
  6  8  1  0  0  0
  6 14  1  0  0  0
  6 25  1  0  0  0
  7  9  1  0  0  0
  7 10  1  0  0  0
  7 11  1  0  0  0
  7 26  1  0  0  0
  8 27  1  0  0  0
  8 28  1  0  0  0
  8 47  1  0  0  0
  9 29  1  0  0  0
  9 30  1  0  0  0
  9 47  1  0  0  0
 10 11  1  0  0  0
 10 31  1  0  0  0
 10 32  1  0  0  0
 11 33  1  0  0  0
 11 34  1  0  0  0
 12 16  2  0  0  0
 12 17  1  0  0  0
 13 16  1  0  0  0
 14 18  1  0  0  0
 14 35  1  0  0  0
 14 36  1  0  0  0
 15 37  1  0  0  0
 15 38  1  0  0  0
 15 39  1  0  0  0
 16 19  1  0  0  0
 17 20  2  0  0  0
 17 40  1  0  0  0
 18 41  1  0  0  0
 18 42  1  0  0  0
 18 43  1  0  0  0
 19 21  2  0  0  0
 19 44  1  0  0  0
 20 21  1  0  0  0
 21 45  1  0  0  0
 47 48  1  0  0  0
M  CHG  1  47   1
M  END
> <LID>
L024009

> <PC_CID>
42800

> <Names>
Ethylketocyclazocine

> <CAS_Numbers>
58640-84-9

$$$$
11409749
                    3D
 Structure written by MMmdl.
 71 74  0  0  1  0            999 V2000
   -9.4555   -2.6037    0.4273 Cl  0  0  0  0  0  0
    6.7465    0.0058   -0.1333 O   0  0  0  0  0  0
   -0.6516    6.8868   -1.4444 O   0  0  0  0  0  0
    6.2685   -2.1945    0.2130 N   0  0  0  0  0  0
   -6.9590   -3.4650    0.6391 N   0  0  0  0  0  0
   -0.8057    7.0868    0.7886 N   0  0  0  0  0  0
   -1.3712   -2.4639   -0.4427 C   0  0  0  0  0  0
   -3.0020   -0.6156   -0.4134 C   0  0  0  0  0  0
   -0.4763   -1.7290    0.5700 C   0  0  0  0  0  0
   -2.1451    0.1523    0.6055 C   0  0  0  0  0  0
   -0.6718   -0.2194    0.4792 C   0  0  0  0  0  0
   -3.6773   -2.8745   -1.1991 C   0  0  0  0  0  0
    0.3340    0.6755    0.2990 C   0  0  0  0  0  0
    1.7454    0.2586    0.2418 C   0  0  0  0  0  0
    0.0746    2.1177    0.1528 C   0  0  0  0  0  0
   -5.1451   -2.7739   -0.8218 C   0  0  0  0  0  0
    2.4878    0.4350   -0.9447 C   0  0  0  0  0  0
    2.3845   -0.2762    1.3813 C   0  0  0  0  0  0
   -0.5699    2.6188   -0.9982 C   0  0  0  0  0  0
    0.5167    3.0208    1.1414 C   0  0  0  0  0  0
   -6.0294   -1.9491   -1.5469 C   0  0  0  0  0  0
   -5.6654   -3.5155    0.2593 C   0  0  0  0  0  0
    3.8424    0.0546   -1.0015 C   0  0  0  0  0  0
    3.7388   -0.6572    1.3261 C   0  0  0  0  0  0
    4.4700   -0.5142    0.1267 C   0  0  0  0  0  0
   -0.7938    4.0011   -1.1453 C   0  0  0  0  0  0
    0.2944    4.4039    0.9960 C   0  0  0  0  0  0
   -0.3751    4.9053   -0.1444 C   0  0  0  0  0  0
   -7.3803   -1.8942   -1.1556 C   0  0  0  0  0  0
    5.9227   -0.8890    0.0602 C   0  0  0  0  0  0
   -7.8011   -2.6694   -0.0557 C   0  0  0  0  0  0
    7.6828   -2.5958    0.2300 C   0  0  0  0  0  0
    5.3195   -3.3185    0.2747 C   0  0  0  0  0  0
   -0.6015    6.3795   -0.3258 C   0  0  0  0  0  0
    8.2704   -2.5100    1.6455 C   0  0  0  0  0  0
    4.8207   -3.7178   -1.1219 C   0  0  0  0  0  0
   -1.2602   -3.5399   -0.3025 H   0  0  0  0  0  0
   -1.0398   -2.2421   -1.4586 H   0  0  0  0  0  0
   -2.7558   -0.2918   -1.4261 H   0  0  0  0  0  0
   -4.0494   -0.3640   -0.2472 H   0  0  0  0  0  0
    0.5571   -2.0273    0.4014 H   0  0  0  0  0  0
   -0.7259   -2.0460    1.5833 H   0  0  0  0  0  0
   -2.4681   -0.1035    1.6155 H   0  0  0  0  0  0
   -2.3228    1.2213    0.5034 H   0  0  0  0  0  0
   -3.5304   -2.5589   -2.2334 H   0  0  0  0  0  0
   -3.3971   -3.9281   -1.1547 H   0  0  0  0  0  0
    2.0184    0.8639   -1.8181 H   0  0  0  0  0  0
    1.8352   -0.3934    2.3041 H   0  0  0  0  0  0
   -0.8946    1.9411   -1.7742 H   0  0  0  0  0  0
    1.0318    2.6534    2.0171 H   0  0  0  0  0  0
   -5.6805   -1.3648   -2.3859 H   0  0  0  0  0  0
   -5.0243   -4.1629    0.8396 H   0  0  0  0  0  0
    4.3971    0.1968   -1.9179 H   0  0  0  0  0  0
    4.2143   -1.0587    2.2095 H   0  0  0  0  0  0
   -1.2910    4.3628   -2.0340 H   0  0  0  0  0  0
    0.6515    5.0722    1.7660 H   0  0  0  0  0  0
   -8.0816   -1.2697   -1.6893 H   0  0  0  0  0  0
    7.7921   -3.6135   -0.1475 H   0  0  0  0  0  0
    8.2719   -1.9809   -0.4526 H   0  0  0  0  0  0
    5.7995   -4.1815    0.7385 H   0  0  0  0  0  0
    4.4743   -3.1031    0.9248 H   0  0  0  0  0  0
    9.3139   -2.8250    1.6510 H   0  0  0  0  0  0
    8.2308   -1.4905    2.0304 H   0  0  0  0  0  0
    7.7260   -3.1519    2.3387 H   0  0  0  0  0  0
    4.1517   -4.5763   -1.0617 H   0  0  0  0  0  0
    4.2717   -2.9062   -1.5995 H   0  0  0  0  0  0
    5.6509   -3.9900   -1.7742 H   0  0  0  0  0  0
   -0.9846    8.0781    0.7220 H   0  0  0  0  0  0
   -0.7883    6.6290    1.6877 H   0  0  0  0  0  0
   -2.8002   -2.0847   -0.2977 N   0  3  1  0  0  0
   -3.0606   -2.3366    0.6451 H   0  0  0  0  0  0
  1 31  1  0  0  0
  2 30  2  0  0  0
  3 34  2  0  0  0
  4 30  1  0  0  0
  4 32  1  0  0  0
  4 33  1  0  0  0
  5 22  1  0  0  0
  5 31  2  0  0  0
  6 34  1  0  0  0
  6 68  1  0  0  0
  6 69  1  0  0  0
  7  9  1  0  0  0
  7 37  1  0  0  0
  7 38  1  0  0  0
  7 70  1  0  0  0
  8 10  1  0  0  0
  8 39  1  0  0  0
  8 40  1  0  0  0
  8 70  1  0  0  0
  9 11  1  0  0  0
  9 41  1  0  0  0
  9 42  1  0  0  0
 10 11  1  0  0  0
 10 43  1  0  0  0
 10 44  1  0  0  0
 11 13  2  0  0  0
 12 16  1  0  0  0
 12 45  1  0  0  0
 12 46  1  0  0  0
 12 70  1  0  0  0
 13 14  1  0  0  0
 13 15  1  0  0  0
 14 17  2  0  0  0
 14 18  1  0  0  0
 15 19  2  0  0  0
 15 20  1  0  0  0
 16 21  1  0  0  0
 16 22  2  0  0  0
 17 23  1  0  0  0
 17 47  1  0  0  0
 18 24  2  0  0  0
 18 48  1  0  0  0
 19 26  1  0  0  0
 19 49  1  0  0  0
 20 27  2  0  0  0
 20 50  1  0  0  0
 21 29  2  0  0  0
 21 51  1  0  0  0
 22 52  1  0  0  0
 23 25  2  0  0  0
 23 53  1  0  0  0
 24 25  1  0  0  0
 24 54  1  0  0  0
 25 30  1  0  0  0
 26 28  2  0  0  0
 26 55  1  0  0  0
 27 28  1  0  0  0
 27 56  1  0  0  0
 28 34  1  0  0  0
 29 31  1  0  0  0
 29 57  1  0  0  0
 32 35  1  0  0  0
 32 58  1  0  0  0
 32 59  1  0  0  0
 33 36  1  0  0  0
 33 60  1  0  0  0
 33 61  1  0  0  0
 35 62  1  0  0  0
 35 63  1  0  0  0
 35 64  1  0  0  0
 36 65  1  0  0  0
 36 66  1  0  0  0
 36 67  1  0  0  0
 70 71  1  0  0  0
M  CHG  1  70   1
M  END
> <LID>
L023459

> <PC_CID>
11409749

> <Names>


> <CAS_Numbers>


$$$$
10116653
                    3D
 Structure written by MMmdl.
 70 74  0  0  1  0            999 V2000
   -5.9405    0.0177    0.1413 O   0  0  0  0  0  0
    4.4409   -4.2249   -1.5888 N   0  0  0  0  0  0
    1.4264    2.6955   -1.4395 N   0  0  0  0  0  0
    5.5075   -5.3360    0.0147 N   0  0  0  0  0  0
   -5.2515   -2.1535    0.1673 N   0  0  0  0  0  0
    1.4636    0.3626    0.9310 C   0  0  0  0  0  0
    2.8936    0.8509    1.1329 C   0  0  0  0  0  0
    1.4029   -1.1591    0.8689 C   0  0  0  0  0  0
    3.8306    0.2688    0.0629 C   0  0  0  0  0  0
    2.3761   -1.7066   -0.1892 C   0  0  0  0  0  0
    0.3891    1.1811    0.7929 C   0  0  0  0  0  0
    4.7473   -1.7940   -0.9205 C   0  0  0  0  0  0
    0.5314    2.6500    0.8052 C   0  0  0  0  0  0
   -0.9800    0.6577    0.6505 C   0  0  0  0  0  0
    4.9393   -3.2635   -0.7238 C   0  0  0  0  0  0
    1.0357    3.3561   -0.3204 C   0  0  0  0  0  0
    0.1087    3.3518    1.9543 C   0  0  0  0  0  0
   -1.7071    0.8901   -0.5359 C   0  0  0  0  0  0
   -1.5979   -0.0387    1.7116 C   0  0  0  0  0  0
    5.6036   -3.9649    0.2597 C   0  0  0  0  0  0
    1.1232    4.7756   -0.2408 C   0  0  0  0  0  0
   -3.0234    0.4086   -0.6715 C   0  0  0  0  0  0
   -2.9136   -0.5215    1.5774 C   0  0  0  0  0  0
   -3.6270   -0.3164    0.3772 C   0  0  0  0  0  0
    0.2024    4.7526    2.0142 C   0  0  0  0  0  0
    0.7128    5.4657    0.9170 C   0  0  0  0  0  0
    4.8013   -5.4171   -1.1061 C   0  0  0  0  0  0
    1.6267    5.4984   -1.3419 C   0  0  0  0  0  0
   -5.0350   -0.8130    0.2244 C   0  0  0  0  0  0
    1.9049    3.3941   -2.4893 C   0  0  0  0  0  0
    2.0270    4.7945   -2.4910 C   0  0  0  0  0  0
   -6.6180   -2.6804    0.0338 C   0  0  0  0  0  0
   -4.1969   -3.1794    0.0982 C   0  0  0  0  0  0
   -7.1073   -2.6427   -1.4225 C   0  0  0  0  0  0
   -3.9973   -3.9077    1.4372 C   0  0  0  0  0  0
    2.9718    1.9369    1.1345 H   0  0  0  0  0  0
    3.2228    0.5279    2.1212 H   0  0  0  0  0  0
    1.6646   -1.5528    1.8518 H   0  0  0  0  0  0
    0.4028   -1.5280    0.6471 H   0  0  0  0  0  0
    4.8529    0.5865    0.2719 H   0  0  0  0  0  0
    3.5695    0.6686   -0.9184 H   0  0  0  0  0  0
    2.0407   -1.4137   -1.1856 H   0  0  0  0  0  0
    2.3519   -2.7960   -0.1566 H   0  0  0  0  0  0
    4.4383   -1.5825   -1.9455 H   0  0  0  0  0  0
    5.7115   -1.3024   -0.7842 H   0  0  0  0  0  0
   -0.2889    2.8105    2.8007 H   0  0  0  0  0  0
   -1.2548    1.4387   -1.3493 H   0  0  0  0  0  0
   -1.0627   -0.2004    2.6360 H   0  0  0  0  0  0
    3.9075   -4.0618   -2.4310 H   0  0  0  0  0  0
    6.1369   -3.5921    1.1219 H   0  0  0  0  0  0
   -3.5661    0.5935   -1.5875 H   0  0  0  0  0  0
   -3.3756   -1.0356    2.4066 H   0  0  0  0  0  0
   -0.1194    5.2794    2.9008 H   0  0  0  0  0  0
    0.7825    6.5428    0.9665 H   0  0  0  0  0  0
    4.5455   -6.3533   -1.5804 H   0  0  0  0  0  0
    1.7048    6.5755   -1.3105 H   0  0  0  0  0  0
    2.2006    2.8178   -3.3535 H   0  0  0  0  0  0
    2.4161    5.3153   -3.3536 H   0  0  0  0  0  0
   -6.6632   -3.7080    0.3955 H   0  0  0  0  0  0
   -7.3048   -2.1215    0.6719 H   0  0  0  0  0  0
   -4.4702   -3.9116   -0.6628 H   0  0  0  0  0  0
   -3.2465   -2.7703   -0.2448 H   0  0  0  0  0  0
   -8.1129   -3.0561   -1.5019 H   0  0  0  0  0  0
   -7.1398   -1.6234   -1.8081 H   0  0  0  0  0  0
   -6.4574   -3.2268   -2.0744 H   0  0  0  0  0  0
   -3.2153   -4.6620    1.3488 H   0  0  0  0  0  0
   -3.7042   -3.2266    2.2337 H   0  0  0  0  0  0
   -4.9057   -4.4175    1.7577 H   0  0  0  0  0  0
    3.7632   -1.2145    0.0274 N   0  3  1  0  0  0
    4.0387   -1.5293    0.9468 H   0  0  0  0  0  0
  1 29  2  0  0  0
  2 15  1  0  0  0
  2 27  1  0  0  0
  2 49  1  0  0  0
  3 16  1  0  0  0
  3 30  2  0  0  0
  4 20  1  0  0  0
  4 27  2  0  0  0
  5 29  1  0  0  0
  5 32  1  0  0  0
  5 33  1  0  0  0
  6  7  1  0  0  0
  6  8  1  0  0  0
  6 11  2  0  0  0
  7  9  1  0  0  0
  7 36  1  0  0  0
  7 37  1  0  0  0
  8 10  1  0  0  0
  8 38  1  0  0  0
  8 39  1  0  0  0
  9 40  1  0  0  0
  9 41  1  0  0  0
  9 69  1  0  0  0
 10 42  1  0  0  0
 10 43  1  0  0  0
 10 69  1  0  0  0
 11 13  1  0  0  0
 11 14  1  0  0  0
 12 15  1  0  0  0
 12 44  1  0  0  0
 12 45  1  0  0  0
 12 69  1  0  0  0
 13 16  1  0  0  0
 13 17  2  0  0  0
 14 18  2  0  0  0
 14 19  1  0  0  0
 15 20  2  0  0  0
 16 21  2  0  0  0
 17 25  1  0  0  0
 17 46  1  0  0  0
 18 22  1  0  0  0
 18 47  1  0  0  0
 19 23  2  0  0  0
 19 48  1  0  0  0
 20 50  1  0  0  0
 21 26  1  0  0  0
 21 28  1  0  0  0
 22 24  2  0  0  0
 22 51  1  0  0  0
 23 24  1  0  0  0
 23 52  1  0  0  0
 24 29  1  0  0  0
 25 26  2  0  0  0
 25 53  1  0  0  0
 26 54  1  0  0  0
 27 55  1  0  0  0
 28 31  2  0  0  0
 28 56  1  0  0  0
 30 31  1  0  0  0
 30 57  1  0  0  0
 31 58  1  0  0  0
 32 34  1  0  0  0
 32 59  1  0  0  0
 32 60  1  0  0  0
 33 35  1  0  0  0
 33 61  1  0  0  0
 33 62  1  0  0  0
 34 63  1  0  0  0
 34 64  1  0  0  0
 34 65  1  0  0  0
 35 66  1  0  0  0
 35 67  1  0  0  0
 35 68  1  0  0  0
 69 70  1  0  0  0
M  CHG  1  69   1
M  END
> <LID>
L020884

> <PC_CID>
10116653

> <Names>


> <CAS_Numbers>


$$$$
19390731
                    3D
 Structure written by MMmdl.
 49 53  0  0  1  0            999 V2000
    2.2819   -0.0782   -1.6281 O   0  0  0  0  0  0
   -4.4080    2.7398    1.4838 O   0  0  0  0  0  0
   -1.3146   -0.5917   -0.5162 C   0  0  2  0  0  0
   -0.8938   -1.1322    0.9029 C   0  0  1  0  0  0
   -2.4985   -1.4503   -1.0476 C   0  0  0  0  0  0
   -0.1072   -0.7206   -1.5094 C   0  0  0  0  0  0
   -0.6857   -2.6640    0.8978 C   0  0  0  0  0  0
    0.3446   -0.4050    1.5035 C   0  0  0  0  0  0
   -2.2685   -2.9709   -0.9571 C   0  0  0  0  0  0
   -1.7889    0.8782   -0.3581 C   0  0  0  0  0  0
    1.4052   -0.1749    0.4723 C   0  0  0  0  0  0
    1.1726   -0.3145   -0.8663 C   0  0  0  0  0  0
    2.7825    0.2092    0.5902 C   0  0  0  0  0  0
   -1.7804   -4.8424    0.5618 C   0  0  0  0  0  0
   -2.8890    1.1736    0.4868 C   0  0  0  0  0  0
   -1.1581    1.9658   -1.0180 C   0  0  0  0  0  0
    3.2860    0.2565   -0.7388 C   0  0  0  0  0  0
    3.6854    0.5231    1.6325 C   0  0  0  0  0  0
   -3.3462    2.4935    0.6633 C   0  0  0  0  0  0
   -1.6134    3.2868   -0.8428 C   0  0  0  0  0  0
    4.6150    0.5958   -1.0422 C   0  0  0  0  0  0
   -2.7085    3.5539   -0.0036 C   0  0  0  0  0  0
    5.0250    0.8675    1.3483 C   0  0  0  0  0  0
    5.4902    0.9044    0.0167 C   0  0  0  0  0  0
   -1.7126   -0.9728    1.6046 H   0  0  0  0  0  0
   -2.7293   -1.1701   -2.0762 H   0  0  0  0  0  0
   -3.4052   -1.2431   -0.4807 H   0  0  0  0  0  0
   -0.2811   -0.1845   -2.4423 H   0  0  0  0  0  0
    0.0256   -1.7554   -1.8168 H   0  0  0  0  0  0
    0.1725   -2.9409    0.2837 H   0  0  0  0  0  0
   -0.4610   -3.0000    1.9112 H   0  0  0  0  0  0
    0.7449   -0.9592    2.3530 H   0  0  0  0  0  0
    0.0293    0.5595    1.9031 H   0  0  0  0  0  0
   -3.1867   -3.4852   -1.2439 H   0  0  0  0  0  0
   -1.5055   -3.3023   -1.6613 H   0  0  0  0  0  0
   -1.5796   -5.1150    1.5984 H   0  0  0  0  0  0
   -2.7079   -5.3331    0.2647 H   0  0  0  0  0  0
   -0.9724   -5.2345   -0.0575 H   0  0  0  0  0  0
   -3.4003    0.3857    1.0188 H   0  0  0  0  0  0
   -0.3083    1.8281   -1.6666 H   0  0  0  0  0  0
    3.3448    0.4991    2.6570 H   0  0  0  0  0  0
   -1.1172    4.0987   -1.3539 H   0  0  0  0  0  0
    4.9563    0.6190   -2.0664 H   0  0  0  0  0  0
   -3.0518    4.5698    0.1264 H   0  0  0  0  0  0
    5.7002    1.1049    2.1575 H   0  0  0  0  0  0
    6.5170    1.1689   -0.1900 H   0  0  0  0  0  0
   -4.6350    3.6557    1.5340 H   0  0  0  0  0  0
   -1.8955   -3.3746    0.4187 N   0  3  1  0  0  0
   -2.6551   -3.0881    1.0201 H   0  0  0  0  0  0
  1 12  1  0  0  0
  1 17  1  0  0  0
  2 19  1  0  0  0
  2 47  1  0  0  0
  3  4  1  0  0  0
  3  5  1  0  0  0
  3  6  1  0  0  0
  3 10  1  0  0  0
  4  7  1  0  0  0
  4  8  1  0  0  0
  4 25  1  0  0  0
  5  9  1  0  0  0
  5 26  1  0  0  0
  5 27  1  0  0  0
  6 12  1  0  0  0
  6 28  1  0  0  0
  6 29  1  0  0  0
  7 30  1  0  0  0
  7 31  1  0  0  0
  7 48  1  0  0  0
  8 11  1  0  0  0
  8 32  1  0  0  0
  8 33  1  0  0  0
  9 34  1  0  0  0
  9 35  1  0  0  0
  9 48  1  0  0  0
 10 15  2  0  0  0
 10 16  1  0  0  0
 11 12  2  0  0  0
 11 13  1  0  0  0
 13 17  1  0  0  0
 13 18  2  0  0  0
 14 36  1  0  0  0
 14 37  1  0  0  0
 14 38  1  0  0  0
 14 48  1  0  0  0
 15 19  1  0  0  0
 15 39  1  0  0  0
 16 20  2  0  0  0
 16 40  1  0  0  0
 17 21  2  0  0  0
 18 23  1  0  0  0
 18 41  1  0  0  0
 19 22  2  0  0  0
 20 22  1  0  0  0
 20 42  1  0  0  0
 21 24  1  0  0  0
 21 43  1  0  0  0
 22 44  1  0  0  0
 23 24  2  0  0  0
 23 45  1  0  0  0
 24 46  1  0  0  0
 48 49  1  0  0  0
M  CHG  1  48   1
M  END
> <LID>
L008276

> <PC_CID>
19390731

> <Names>


> <CAS_Numbers>


$$$$
10075001
                    3D
 Structure written by MMmdl.
 70 74  0  0  1  0            999 V2000
    2.8521    2.3446    1.3587 O   0  0  0  0  0  0
    6.0544    3.7166   -0.5927 O   0  0  0  0  0  0
    4.0407   -0.7759    0.1472 N   0  0  0  0  0  0
    4.8196    1.2969    0.8846 N   0  0  0  0  0  0
   -4.0020    3.3603    0.4544 N   0  0  0  0  0  0
    2.8678    0.0665    0.4616 C   0  0  0  0  0  0
    1.9959   -0.5445    1.5982 C   0  0  0  0  0  0
    2.0078    0.3621   -0.8020 C   0  0  0  0  0  0
    0.6451    0.1706    1.8013 C   0  0  0  0  0  0
    0.6608    1.0439   -0.4924 C   0  0  0  0  0  0
    3.4950    1.3752    0.9553 C   0  0  0  0  0  0
    5.2592    0.0000    0.4093 C   0  0  0  0  0  0
   -1.4824    0.8109    0.7366 C   0  0  0  0  0  0
    4.0931   -2.0604   -0.3277 C   0  0  0  0  0  0
   -2.4418    0.4437   -0.4199 C   0  0  0  0  0  0
    5.7787    2.3177    1.3058 C   0  0  0  0  0  0
   -3.9366    0.8010   -0.1800 C   0  0  0  0  0  0
    5.3484   -2.6886   -0.5496 C   0  0  0  0  0  0
    2.9311   -2.8222   -0.6204 C   0  0  0  0  0  0
    6.5889    2.8391    0.1195 C   0  0  0  0  0  0
   -4.7150    0.5306   -1.4781 C   0  0  0  0  0  0
   -4.5945    0.0117    0.9692 C   0  0  0  0  0  0
    5.4384   -4.0067   -1.0368 C   0  0  0  0  0  0
    3.0177   -4.1406   -1.1078 C   0  0  0  0  0  0
   -3.9757    2.2369    0.1745 C   0  0  0  0  0  0
    4.2720   -4.7364   -1.3172 C   0  0  0  0  0  0
   -4.9182   -0.8028   -1.9072 C   0  0  0  0  0  0
   -5.7902    0.5023    1.5469 C   0  0  0  0  0  0
   -5.2280    1.5822   -2.2773 C   0  0  0  0  0  0
   -4.0717   -1.2158    1.4488 C   0  0  0  0  0  0
   -5.6218   -1.0809   -3.0945 C   0  0  0  0  0  0
   -6.4318   -0.1956    2.5877 C   0  0  0  0  0  0
   -5.9318    1.3040   -3.4651 C   0  0  0  0  0  0
   -4.7129   -1.9142    2.4901 C   0  0  0  0  0  0
   -6.1306   -0.0270   -3.8744 C   0  0  0  0  0  0
   -5.8915   -1.4037    3.0629 C   0  0  0  0  0  0
    2.5493   -0.5287    2.5388 H   0  0  0  0  0  0
    1.7886   -1.5968    1.4283 H   0  0  0  0  0  0
    1.7986   -0.5398   -1.3698 H   0  0  0  0  0  0
    2.5710    0.9906   -1.4943 H   0  0  0  0  0  0
    0.0602   -0.4001    2.5238 H   0  0  0  0  0  0
    0.7804    1.1604    2.2374 H   0  0  0  0  0  0
    0.0950    1.1115   -1.4206 H   0  0  0  0  0  0
    0.8066    2.0700   -0.1544 H   0  0  0  0  0  0
    5.8743   -0.4805    1.1718 H   0  0  0  0  0  0
    5.8462    0.1135   -0.5035 H   0  0  0  0  0  0
   -1.8783    0.3988    1.6642 H   0  0  0  0  0  0
   -1.4362    1.8908    0.8844 H   0  0  0  0  0  0
   -2.1195    0.9823   -1.3112 H   0  0  0  0  0  0
   -2.3336   -0.6103   -0.6754 H   0  0  0  0  0  0
    5.2810    3.1578    1.7925 H   0  0  0  0  0  0
    6.4536    1.8879    2.0470 H   0  0  0  0  0  0
    6.2787   -2.1784   -0.3527 H   0  0  0  0  0  0
    1.9389   -2.4295   -0.4849 H   0  0  0  0  0  0
    6.4071   -4.4573   -1.1954 H   0  0  0  0  0  0
    2.1165   -4.6960   -1.3219 H   0  0  0  0  0  0
    4.3391   -5.7475   -1.6912 H   0  0  0  0  0  0
   -4.5333   -1.6266   -1.3249 H   0  0  0  0  0  0
   -6.2310    1.4217    1.1900 H   0  0  0  0  0  0
   -5.0931    2.6168   -2.0013 H   0  0  0  0  0  0
   -3.1775   -1.6489    1.0302 H   0  0  0  0  0  0
   -5.7706   -2.1041   -3.4070 H   0  0  0  0  0  0
   -7.3418    0.1952    3.0189 H   0  0  0  0  0  0
   -6.3191    2.1150   -4.0643 H   0  0  0  0  0  0
   -4.3012   -2.8466    2.8475 H   0  0  0  0  0  0
   -6.6705   -0.2388   -4.7856 H   0  0  0  0  0  0
   -6.3837   -1.9409    3.8604 H   0  0  0  0  0  0
    7.7196    2.3377   -0.0630 O   0  5  0  0  0  0
   -0.1093    0.2834    0.5267 N   0  3  0  0  0  0
   -0.2141   -0.6586    0.1777 H   0  0  0  0  0  0
  1 11  2  0  0  0
  2 20  2  0  0  0
  3  6  1  0  0  0
  3 12  1  0  0  0
  3 14  1  0  0  0
  4 11  1  0  0  0
  4 12  1  0  0  0
  4 16  1  0  0  0
  5 25  3  0  0  0
  6  7  1  0  0  0
  6  8  1  0  0  0
  6 11  1  0  0  0
  7  9  1  0  0  0
  7 37  1  0  0  0
  7 38  1  0  0  0
  8 10  1  0  0  0
  8 39  1  0  0  0
  8 40  1  0  0  0
  9 41  1  0  0  0
  9 42  1  0  0  0
  9 69  1  0  0  0
 10 43  1  0  0  0
 10 44  1  0  0  0
 10 69  1  0  0  0
 12 45  1  0  0  0
 12 46  1  0  0  0
 13 15  1  0  0  0
 13 47  1  0  0  0
 13 48  1  0  0  0
 13 69  1  0  0  0
 14 18  2  0  0  0
 14 19  1  0  0  0
 15 17  1  0  0  0
 15 49  1  0  0  0
 15 50  1  0  0  0
 16 20  1  0  0  0
 16 51  1  0  0  0
 16 52  1  0  0  0
 17 21  1  0  0  0
 17 22  1  0  0  0
 17 25  1  0  0  0
 18 23  1  0  0  0
 18 53  1  0  0  0
 19 24  2  0  0  0
 19 54  1  0  0  0
 20 68  1  0  0  0
 21 27  2  0  0  0
 21 29  1  0  0  0
 22 28  2  0  0  0
 22 30  1  0  0  0
 23 26  2  0  0  0
 23 55  1  0  0  0
 24 26  1  0  0  0
 24 56  1  0  0  0
 26 57  1  0  0  0
 27 31  1  0  0  0
 27 58  1  0  0  0
 28 32  1  0  0  0
 28 59  1  0  0  0
 29 33  2  0  0  0
 29 60  1  0  0  0
 30 34  2  0  0  0
 30 61  1  0  0  0
 31 35  2  0  0  0
 31 62  1  0  0  0
 32 36  2  0  0  0
 32 63  1  0  0  0
 33 35  1  0  0  0
 33 64  1  0  0  0
 34 36  1  0  0  0
 34 65  1  0  0  0
 35 66  1  0  0  0
 36 67  1  0  0  0
 69 70  1  0  0  0
M  CHG  2  68  -1  69   1
M  END
> <LID>
L022590

> <PC_CID>
10075001

> <Names>


> <CAS_Numbers>


$$$$
11167575
                    3D
 Structure written by MMmdl.
 76 79  0  0  1  0            999 V2000
   -1.3901   -3.6627   -0.3221 O   0  0  0  0  0  0
    1.6174    2.1812   -0.7900 N   0  0  0  0  0  0
   -3.4672   -3.0146    0.3482 N   0  0  0  0  0  0
   -0.3644    3.2755    2.2514 C   0  0  0  0  0  0
    0.2745    4.6233    2.5803 C   0  0  0  0  0  0
   -1.8676    3.2962    2.5186 C   0  0  0  0  0  0
   -0.4475    5.7686    1.8485 C   0  0  0  0  0  0
   -2.5442    4.4621    1.7792 C   0  0  0  0  0  0
    0.3208    2.2023    1.7779 C   0  0  0  0  0  0
    1.7894    2.2406    1.6008 C   0  0  0  0  0  0
   -0.3467    0.9420    1.3958 C   0  0  0  0  0  0
    2.3922    2.1996    0.3154 C   0  0  0  0  0  0
    2.6106    2.2482    2.7506 C   0  0  0  0  0  0
    0.0086   -0.2669    2.0306 C   0  0  0  0  0  0
   -1.2854    0.9115    0.3405 C   0  0  0  0  0  0
    1.9193    1.5168   -2.0478 C   0  0  0  0  0  0
    1.8843   -0.0116   -1.8979 C   0  0  0  0  0  0
    3.8018    2.1720    0.2079 C   0  0  0  0  0  0
   -1.5359   -1.5059    0.5965 C   0  0  0  0  0  0
   -0.5788   -1.4831    1.6322 C   0  0  0  0  0  0
   -1.8735   -0.3032   -0.0593 C   0  0  0  0  0  0
    4.0122    2.2294    2.6336 C   0  0  0  0  0  0
    2.0933   -0.7411   -3.2310 C   0  0  0  0  0  0
    4.6078    2.1905    1.3610 C   0  0  0  0  0  0
   -2.1354   -2.8131    0.1665 C   0  0  0  0  0  0
    2.0492   -2.2489   -3.0685 C   0  0  0  0  0  0
   -4.0914   -4.2761   -0.0788 C   0  0  0  0  0  0
   -4.3689   -2.1104    1.0824 C   0  0  0  0  0  0
    0.8095   -2.9096   -2.9364 C   0  0  0  0  0  0
    3.2453   -2.9968   -3.0412 C   0  0  0  0  0  0
   -3.8787   -5.3987    0.9490 C   0  0  0  0  0  0
   -5.2842   -1.3037    0.1466 C   0  0  0  0  0  0
    0.7664   -4.3087   -2.7808 C   0  0  0  0  0  0
    3.2012   -4.3962   -2.8854 C   0  0  0  0  0  0
    1.9619   -5.0524   -2.7552 C   0  0  0  0  0  0
    1.3328    4.6587    2.3264 H   0  0  0  0  0  0
    0.2135    4.7759    3.6585 H   0  0  0  0  0  0
   -2.0116    3.4176    3.5929 H   0  0  0  0  0  0
   -2.3593    2.3593    2.2648 H   0  0  0  0  0  0
   -0.0392    6.7314    2.1569 H   0  0  0  0  0  0
   -0.2857    5.6853    0.7728 H   0  0  0  0  0  0
   -2.4877    4.3070    0.7008 H   0  0  0  0  0  0
   -3.6020    4.5120    2.0386 H   0  0  0  0  0  0
    2.1617    2.2626    3.7331 H   0  0  0  0  0  0
    0.7431   -0.2668    2.8229 H   0  0  0  0  0  0
   -1.5456    1.8220   -0.1792 H   0  0  0  0  0  0
    0.6291    2.2799   -0.6086 H   0  0  0  0  0  0
    1.1729    1.8304   -2.7781 H   0  0  0  0  0  0
    2.8841    1.8472   -2.4321 H   0  0  0  0  0  0
    2.6494   -0.3289   -1.1880 H   0  0  0  0  0  0
    0.9261   -0.3111   -1.4709 H   0  0  0  0  0  0
    4.2826    2.1436   -0.7582 H   0  0  0  0  0  0
   -0.2913   -2.3999    2.1267 H   0  0  0  0  0  0
   -2.5675   -0.3077   -0.8858 H   0  0  0  0  0  0
    4.6294    2.2377    3.5199 H   0  0  0  0  0  0
    1.3238   -0.4435   -3.9444 H   0  0  0  0  0  0
    3.0486   -0.4501   -3.6697 H   0  0  0  0  0  0
    5.6838    2.1725    1.2681 H   0  0  0  0  0  0
   -5.1616   -4.1355   -0.2315 H   0  0  0  0  0  0
   -3.7011   -4.5827   -1.0510 H   0  0  0  0  0  0
   -4.9896   -2.7053    1.7538 H   0  0  0  0  0  0
   -3.8257   -1.4328    1.7412 H   0  0  0  0  0  0
   -0.1114   -2.3449   -2.9484 H   0  0  0  0  0  0
    4.2000   -2.5007   -3.1376 H   0  0  0  0  0  0
   -4.3666   -6.3172    0.6227 H   0  0  0  0  0  0
   -2.8202   -5.6205    1.0875 H   0  0  0  0  0  0
   -4.2945   -5.1307    1.9206 H   0  0  0  0  0  0
   -5.9356   -0.6469    0.7232 H   0  0  0  0  0  0
   -4.7185   -0.6791   -0.5416 H   0  0  0  0  0  0
   -5.9244   -1.9535   -0.4497 H   0  0  0  0  0  0
   -0.1845   -4.8103   -2.6761 H   0  0  0  0  0  0
    4.1184   -4.9661   -2.8643 H   0  0  0  0  0  0
    1.9281   -6.1250   -2.6339 H   0  0  0  0  0  0
   -1.9015    5.7499    2.1202 N   0  3  0  0  0  0
   -2.3443    6.4891    1.5927 H   0  0  0  0  0  0
   -2.0433    5.9254    3.1049 H   0  0  0  0  0  0
  1 25  2  0  0  0
  2 12  1  0  0  0
  2 16  1  0  0  0
  2 47  1  0  0  0
  3 25  1  0  0  0
  3 27  1  0  0  0
  3 28  1  0  0  0
  4  5  1  0  0  0
  4  6  1  0  0  0
  4  9  2  0  0  0
  5  7  1  0  0  0
  5 36  1  0  0  0
  5 37  1  0  0  0
  6  8  1  0  0  0
  6 38  1  0  0  0
  6 39  1  0  0  0
  7 40  1  0  0  0
  7 41  1  0  0  0
  7 74  1  0  0  0
  8 42  1  0  0  0
  8 43  1  0  0  0
  8 74  1  0  0  0
  9 10  1  0  0  0
  9 11  1  0  0  0
 10 12  1  0  0  0
 10 13  2  0  0  0
 11 14  2  0  0  0
 11 15  1  0  0  0
 12 18  2  0  0  0
 13 22  1  0  0  0
 13 44  1  0  0  0
 14 20  1  0  0  0
 14 45  1  0  0  0
 15 21  2  0  0  0
 15 46  1  0  0  0
 16 17  1  0  0  0
 16 48  1  0  0  0
 16 49  1  0  0  0
 17 23  1  0  0  0
 17 50  1  0  0  0
 17 51  1  0  0  0
 18 24  1  0  0  0
 18 52  1  0  0  0
 19 20  2  0  0  0
 19 21  1  0  0  0
 19 25  1  0  0  0
 20 53  1  0  0  0
 21 54  1  0  0  0
 22 24  2  0  0  0
 22 55  1  0  0  0
 23 26  1  0  0  0
 23 56  1  0  0  0
 23 57  1  0  0  0
 24 58  1  0  0  0
 26 29  2  0  0  0
 26 30  1  0  0  0
 27 31  1  0  0  0
 27 59  1  0  0  0
 27 60  1  0  0  0
 28 32  1  0  0  0
 28 61  1  0  0  0
 28 62  1  0  0  0
 29 33  1  0  0  0
 29 63  1  0  0  0
 30 34  2  0  0  0
 30 64  1  0  0  0
 31 65  1  0  0  0
 31 66  1  0  0  0
 31 67  1  0  0  0
 32 68  1  0  0  0
 32 69  1  0  0  0
 32 70  1  0  0  0
 33 35  2  0  0  0
 33 71  1  0  0  0
 34 35  1  0  0  0
 34 72  1  0  0  0
 35 73  1  0  0  0
 74 75  1  0  0  0
 74 76  1  0  0  0
M  CHG  1  74   1
M  END
> <LID>
L023445

> <PC_CID>
11167575

> <Names>


> <CAS_Numbers>


$$$$
44216049
                    3D
 Structure written by MMmdl.
 72 75  0  0  1  0            999 V2000
   -6.5550   -3.2259    0.4390 S   0  0  0  0  0  0
    5.2284   -1.8506   -1.6936 O   0  0  0  0  0  0
   -0.2808    6.8449   -0.4275 O   0  0  0  0  0  0
    1.1798    7.0213   -2.1659 O   0  0  0  0  0  0
    4.7931   -3.5388   -0.2273 N   0  0  0  0  0  0
   -6.0644   -4.8640   -1.5241 N   0  0  0  0  0  0
    1.0547    5.0781   -0.9000 N   0  0  0  0  0  0
   -2.7522    0.7759    1.1363 C   0  0  0  0  0  0
   -1.7302   -1.4606    0.6031 C   0  0  0  0  0  0
   -1.4646    0.0268    0.8097 C   0  0  0  0  0  0
   -3.8372    0.4980    0.0818 C   0  0  0  0  0  0
   -2.8292   -1.6890   -0.4466 C   0  0  0  0  0  0
   -0.2424    0.6100    0.7057 C   0  0  0  0  0  0
   -5.1992   -1.2295   -1.0270 C   0  0  0  0  0  0
    0.9534   -0.1597    0.3248 C   0  0  0  0  0  0
   -0.0357    2.0435    0.9742 C   0  0  0  0  0  0
   -5.6768   -2.6439   -0.9544 C   0  0  0  0  0  0
    1.0998   -0.6541   -0.9892 C   0  0  0  0  0  0
    1.9909   -0.3645    1.2581 C   0  0  0  0  0  0
    0.3902    2.9017   -0.0620 C   0  0  0  0  0  0
   -0.2157    2.5658    2.2732 C   0  0  0  0  0  0
   -5.5090   -3.6360   -1.8919 C   0  0  0  0  0  0
    2.2544   -1.3716   -1.3560 C   0  0  0  0  0  0
    3.1463   -1.0816    0.8927 C   0  0  0  0  0  0
    3.2747   -1.6086   -0.4112 C   0  0  0  0  0  0
    0.6004    4.2747    0.1800 C   0  0  0  0  0  0
    0.0151    3.9304    2.5289 C   0  0  0  0  0  0
    0.4274    4.7836    1.4881 C   0  0  0  0  0  0
    4.5134   -2.3503   -0.8242 C   0  0  0  0  0  0
   -6.6488   -4.8020   -0.3278 C   0  0  0  0  0  0
    6.0328   -4.2620   -0.5465 C   0  0  0  0  0  0
    3.8901   -4.2590    0.6859 C   0  0  0  0  0  0
    7.1938   -3.7999    0.3452 C   0  0  0  0  0  0
    2.7929   -5.0139   -0.0789 C   0  0  0  0  0  0
    0.6937    6.3819   -1.2336 C   0  0  0  0  0  0
   -0.7925    8.1522   -0.6217 C   0  0  0  0  0  0
   -3.0979    0.4498    2.1180 H   0  0  0  0  0  0
   -2.6027    1.8521    1.2057 H   0  0  0  0  0  0
   -0.8364   -2.0163    0.3252 H   0  0  0  0  0  0
   -2.0502   -1.8783    1.5586 H   0  0  0  0  0  0
   -4.7634    0.9884    0.3842 H   0  0  0  0  0  0
   -3.5455    0.9361   -0.8743 H   0  0  0  0  0  0
   -2.4793   -1.3647   -1.4281 H   0  0  0  0  0  0
   -3.0268   -2.7586   -0.5199 H   0  0  0  0  0  0
   -6.0356   -0.5718   -0.7867 H   0  0  0  0  0  0
   -4.8987   -0.9821   -2.0464 H   0  0  0  0  0  0
    0.3240   -0.4824   -1.7211 H   0  0  0  0  0  0
    1.9031    0.0303    2.2600 H   0  0  0  0  0  0
    0.5471    2.5027   -1.0540 H   0  0  0  0  0  0
   -0.5248    1.9168    3.0797 H   0  0  0  0  0  0
   -5.0045   -3.5569   -2.8438 H   0  0  0  0  0  0
    2.3518   -1.7436   -2.3659 H   0  0  0  0  0  0
    3.9344   -1.2243    1.6180 H   0  0  0  0  0  0
   -0.1154    4.3219    3.5270 H   0  0  0  0  0  0
    0.6221    5.8227    1.7087 H   0  0  0  0  0  0
   -7.1274   -5.6716    0.0982 H   0  0  0  0  0  0
    1.6709    4.6355   -1.5660 H   0  0  0  0  0  0
    5.8865   -5.3362   -0.4246 H   0  0  0  0  0  0
    6.3003   -4.1348   -1.5969 H   0  0  0  0  0  0
    4.4606   -4.9729    1.2818 H   0  0  0  0  0  0
    3.4420   -3.5957    1.4226 H   0  0  0  0  0  0
    8.1040   -4.3529    0.1127 H   0  0  0  0  0  0
    7.4056   -2.7397    0.2030 H   0  0  0  0  0  0
    6.9689   -3.9588    1.4002 H   0  0  0  0  0  0
    2.1591   -5.5739    0.6089 H   0  0  0  0  0  0
    2.1505   -4.3325   -0.6367 H   0  0  0  0  0  0
    3.2225   -5.7240   -0.7861 H   0  0  0  0  0  0
   -1.5671    8.3600    0.1165 H   0  0  0  0  0  0
   -0.0053    8.8987   -0.5087 H   0  0  0  0  0  0
   -1.2320    8.2544   -1.6147 H   0  0  0  0  0  0
   -4.0757   -0.9572   -0.0962 N   0  3  2  0  0  0
   -4.3691   -1.3053    0.8056 H   0  0  0  0  0  0
  1 17  1  0  0  0
  1 30  1  0  0  0
  2 29  2  0  0  0
  3 35  1  0  0  0
  3 36  1  0  0  0
  4 35  2  0  0  0
  5 29  1  0  0  0
  5 31  1  0  0  0
  5 32  1  0  0  0
  6 22  1  0  0  0
  6 30  2  0  0  0
  7 26  1  0  0  0
  7 35  1  0  0  0
  7 57  1  0  0  0
  8 10  1  0  0  0
  8 11  1  0  0  0
  8 37  1  0  0  0
  8 38  1  0  0  0
  9 10  1  0  0  0
  9 12  1  0  0  0
  9 39  1  0  0  0
  9 40  1  0  0  0
 10 13  2  0  0  0
 11 41  1  0  0  0
 11 42  1  0  0  0
 11 71  1  0  0  0
 12 43  1  0  0  0
 12 44  1  0  0  0
 12 71  1  0  0  0
 13 15  1  0  0  0
 13 16  1  0  0  0
 14 17  1  0  0  0
 14 45  1  0  0  0
 14 46  1  0  0  0
 14 71  1  0  0  0
 15 18  2  0  0  0
 15 19  1  0  0  0
 16 20  2  0  0  0
 16 21  1  0  0  0
 17 22  2  0  0  0
 18 23  1  0  0  0
 18 47  1  0  0  0
 19 24  2  0  0  0
 19 48  1  0  0  0
 20 26  1  0  0  0
 20 49  1  0  0  0
 21 27  2  0  0  0
 21 50  1  0  0  0
 22 51  1  0  0  0
 23 25  2  0  0  0
 23 52  1  0  0  0
 24 25  1  0  0  0
 24 53  1  0  0  0
 25 29  1  0  0  0
 26 28  2  0  0  0
 27 28  1  0  0  0
 27 54  1  0  0  0
 28 55  1  0  0  0
 30 56  1  0  0  0
 31 33  1  0  0  0
 31 58  1  0  0  0
 31 59  1  0  0  0
 32 34  1  0  0  0
 32 60  1  0  0  0
 32 61  1  0  0  0
 33 62  1  0  0  0
 33 63  1  0  0  0
 33 64  1  0  0  0
 34 65  1  0  0  0
 34 66  1  0  0  0
 34 67  1  0  0  0
 36 68  1  0  0  0
 36 69  1  0  0  0
 36 70  1  0  0  0
 71 72  1  0  0  0
M  CHG  1  71   1
M  END
> <LID>
L023139

> <PC_CID>
44216049

> <Names>


> <CAS_Numbers>


$$$$
44216048
                    3D
 Structure written by MMmdl.
 71 74  0  0  1  0            999 V2000
   -5.6766    4.5390    0.3662 S   0  0  0  0  0  0
    5.5032    0.3441   -1.4117 O   0  0  0  0  0  0
   -1.4448   -7.2125   -0.3379 O   0  0  0  0  0  0
    5.3984    2.1246    0.0053 N   0  0  0  0  0  0
   -4.7421    6.0239   -1.5571 N   0  0  0  0  0  0
   -0.2431   -5.3450   -0.8750 N   0  0  0  0  0  0
   -2.9823   -0.2719    1.1117 C   0  0  0  0  0  0
   -1.4323    1.6539    0.6428 C   0  0  0  0  0  0
   -1.5415    0.1449    0.8351 C   0  0  0  0  0  0
   -3.9333    0.2694    0.0304 C   0  0  0  0  0  0
   -2.4091    2.1500   -0.4350 C   0  0  0  0  0  0
   -0.4938   -0.7163    0.7600 C   0  0  0  0  0  0
   -4.8002    2.2845   -1.0905 C   0  0  0  0  0  0
    0.8648   -0.2570    0.4265 C   0  0  0  0  0  0
   -0.6479   -2.1590    1.0158 C   0  0  0  0  0  0
   -4.9225    3.7719   -1.0102 C   0  0  0  0  0  0
    1.1692    0.1990   -0.8743 C   0  0  0  0  0  0
    1.8911   -0.3217    1.3919 C   0  0  0  0  0  0
   -0.3961   -3.0899   -0.0144 C   0  0  0  0  0  0
   -1.0036   -2.6288    2.2982 C   0  0  0  0  0  0
   -4.4898    4.7007   -1.9275 C   0  0  0  0  0  0
    3.4929    0.5814   -0.2197 C   0  0  0  0  0  0
    2.4756    0.6142   -1.1962 C   0  0  0  0  0  0
    3.1980    0.0931    1.0714 C   0  0  0  0  0  0
   -0.5263   -4.4757    0.2134 C   0  0  0  0  0  0
   -1.1212   -4.0098    2.5407 C   0  0  0  0  0  0
   -0.8820   -4.9327    1.5051 C   0  0  0  0  0  0
    4.8849    1.0112   -0.5813 C   0  0  0  0  0  0
   -5.3613    6.0966   -0.3791 C   0  0  0  0  0  0
    6.7634    2.5696   -0.3136 C   0  0  0  0  0  0
    4.6481    3.0469    0.8747 C   0  0  0  0  0  0
    6.8159    3.3612   -1.6298 C   0  0  0  0  0  0
    5.0065    2.8766    2.3600 C   0  0  0  0  0  0
   -0.6771   -6.6019   -1.0802 C   0  0  0  0  0  0
   -0.1766   -7.2705   -2.3562 C   0  0  0  0  0  0
   -3.1005   -1.3527    1.1679 H   0  0  0  0  0  0
   -3.2703    0.1201    2.0879 H   0  0  0  0  0  0
   -1.6721    2.1295    1.5946 H   0  0  0  0  0  0
   -0.4221    1.9783    0.3996 H   0  0  0  0  0  0
   -3.7261   -0.2189   -0.9234 H   0  0  0  0  0  0
   -4.9599    0.0160    0.2982 H   0  0  0  0  0  0
   -2.3391    3.2361   -0.4980 H   0  0  0  0  0  0
   -2.1172    1.7578   -1.4107 H   0  0  0  0  0  0
   -4.5366    1.9793   -2.1044 H   0  0  0  0  0  0
   -5.7783    1.8477   -0.8844 H   0  0  0  0  0  0
    0.3983    0.2306   -1.6304 H   0  0  0  0  0  0
    1.6785   -0.6948    2.3832 H   0  0  0  0  0  0
   -0.1078   -2.7330   -0.9929 H   0  0  0  0  0  0
   -1.1824   -1.9288    3.1014 H   0  0  0  0  0  0
   -3.9900    4.5088   -2.8657 H   0  0  0  0  0  0
    2.6928    0.9622   -2.1960 H   0  0  0  0  0  0
    3.9742    0.0182    1.8177 H   0  0  0  0  0  0
   -1.3881   -4.3632    3.5258 H   0  0  0  0  0  0
   -0.9595   -5.9855    1.7288 H   0  0  0  0  0  0
   -5.6278    7.0531    0.0461 H   0  0  0  0  0  0
    0.3087   -4.9434   -1.6187 H   0  0  0  0  0  0
    7.1544    3.1940    0.4901 H   0  0  0  0  0  0
    7.4392    1.7142   -0.3664 H   0  0  0  0  0  0
    4.8723    4.0713    0.5743 H   0  0  0  0  0  0
    3.5702    2.9528    0.7421 H   0  0  0  0  0  0
    7.8317    3.6985   -1.8362 H   0  0  0  0  0  0
    6.4931    2.7541   -2.4759 H   0  0  0  0  0  0
    6.1768    4.2435   -1.5875 H   0  0  0  0  0  0
    4.4365    3.5750    2.9727 H   0  0  0  0  0  0
    4.7887    1.8735    2.7212 H   0  0  0  0  0  0
    6.0630    3.0704    2.5444 H   0  0  0  0  0  0
   -0.5499   -8.2924   -2.4303 H   0  0  0  0  0  0
   -0.5158   -6.7194   -3.2337 H   0  0  0  0  0  0
    0.9131   -7.3048   -2.3674 H   0  0  0  0  0  0
   -3.8063    1.7402   -0.1319 N   0  3  1  0  0  0
   -4.0350    2.1420    0.7662 H   0  0  0  0  0  0
  1 16  1  0  0  0
  1 29  1  0  0  0
  2 28  2  0  0  0
  3 34  2  0  0  0
  4 28  1  0  0  0
  4 30  1  0  0  0
  4 31  1  0  0  0
  5 21  1  0  0  0
  5 29  2  0  0  0
  6 25  1  0  0  0
  6 34  1  0  0  0
  6 56  1  0  0  0
  7  9  1  0  0  0
  7 10  1  0  0  0
  7 36  1  0  0  0
  7 37  1  0  0  0
  8  9  1  0  0  0
  8 11  1  0  0  0
  8 38  1  0  0  0
  8 39  1  0  0  0
  9 12  2  0  0  0
 10 40  1  0  0  0
 10 41  1  0  0  0
 10 70  1  0  0  0
 11 42  1  0  0  0
 11 43  1  0  0  0
 11 70  1  0  0  0
 12 14  1  0  0  0
 12 15  1  0  0  0
 13 16  1  0  0  0
 13 44  1  0  0  0
 13 45  1  0  0  0
 13 70  1  0  0  0
 14 17  2  0  0  0
 14 18  1  0  0  0
 15 19  2  0  0  0
 15 20  1  0  0  0
 16 21  2  0  0  0
 17 23  1  0  0  0
 17 46  1  0  0  0
 18 24  2  0  0  0
 18 47  1  0  0  0
 19 25  1  0  0  0
 19 48  1  0  0  0
 20 26  2  0  0  0
 20 49  1  0  0  0
 21 50  1  0  0  0
 22 23  2  0  0  0
 22 24  1  0  0  0
 22 28  1  0  0  0
 23 51  1  0  0  0
 24 52  1  0  0  0
 25 27  2  0  0  0
 26 27  1  0  0  0
 26 53  1  0  0  0
 27 54  1  0  0  0
 29 55  1  0  0  0
 30 32  1  0  0  0
 30 57  1  0  0  0
 30 58  1  0  0  0
 31 33  1  0  0  0
 31 59  1  0  0  0
 31 60  1  0  0  0
 32 61  1  0  0  0
 32 62  1  0  0  0
 32 63  1  0  0  0
 33 64  1  0  0  0
 33 65  1  0  0  0
 33 66  1  0  0  0
 34 35  1  0  0  0
 35 67  1  0  0  0
 35 68  1  0  0  0
 35 69  1  0  0  0
 70 71  1  0  0  0
M  CHG  1  70   1
M  END
> <LID>
L023134

> <PC_CID>
44216048

> <Names>


> <CAS_Numbers>


$$$$
44214647
                    3D
 Structure written by MMmdl.
 81 88  0  0  1  0            999 V2000
    7.6283   -2.6472    1.7632 O   0  0  0  0  0  0
    4.6821   -2.6574    1.4600 O   0  0  0  0  0  0
    5.4991   -0.8547   -1.8027 O   0  0  0  0  0  0
    9.4864   -3.7288    3.7893 O   0  0  0  0  0  0
    3.3534   -1.4390   -1.4141 N   0  0  0  0  0  0
    7.6755   -0.3520    1.0357 C   0  0  2  0  0  0
    6.7543    0.8187    1.4767 C   0  0  1  0  0  0
    6.8956   -1.7122    0.9426 C   0  0  2  0  0  0
    7.6887    2.0526    1.6048 C   0  0  1  0  0  0
    5.4207   -1.4546    1.4032 C   0  0  1  0  0  0
    5.5667    0.9348    0.4725 C   0  0  0  0  0  0
    4.7443   -0.4106    0.4304 C   0  0  1  0  0  0
    8.4395   -0.0450   -0.2803 C   0  0  0  0  0  0
    8.6357   -0.6067    2.1550 C   0  0  0  0  0  0
    6.0885    0.4097    2.7950 C   0  0  0  0  0  0
    8.8418    1.8284    2.6440 C   0  0  0  0  0  0
    9.1479    1.3179   -0.2686 C   0  0  0  0  0  0
    5.4444   -0.7681    2.7639 C   0  0  0  0  0  0
    9.3179    0.3849    2.8802 C   0  0  0  0  0  0
    8.5926   -1.9557    2.4412 C   0  0  0  0  0  0
    4.5486   -0.9245   -1.0231 C   0  0  0  0  0  0
    8.7454    3.7543    0.0919 C   0  0  0  0  0  0
   10.1769   -0.0868    3.8954 C   0  0  0  0  0  0
    9.4589   -2.4064    3.4580 C   0  0  0  0  0  0
   10.2716   -1.4775    4.1561 C   0  0  0  0  0  0
    8.5554    4.2558   -1.3520 C   0  0  0  0  0  0
    3.1545   -2.0039   -2.7604 C   0  0  0  0  0  0
    2.1621   -1.4843   -0.5610 C   0  0  0  0  0  0
    7.1192    4.1022   -1.8252 C   0  0  0  0  0  0
    3.2627   -3.5446   -2.7853 C   0  0  0  0  0  0
    6.1268    5.0044   -1.3882 C   0  0  0  0  0  0
    6.7638    3.0297   -2.6718 C   0  0  0  0  0  0
    4.5578   -4.0866   -2.2015 C   0  0  0  0  0  0
    4.7876    4.8304   -1.7888 C   0  0  0  0  0  0
    5.4241    2.8542   -3.0684 C   0  0  0  0  0  0
    4.4356    3.7541   -2.6262 C   0  0  0  0  0  0
    4.5497   -4.7776   -0.9713 C   0  0  0  0  0  0
    5.7785   -3.8883   -2.8808 C   0  0  0  0  0  0
    5.7549   -5.2509   -0.4168 C   0  0  0  0  0  0
    6.9836   -4.3596   -2.3248 C   0  0  0  0  0  0
    6.9725   -5.0389   -1.0914 C   0  0  0  0  0  0
    6.9149   -2.1135   -0.0700 H   0  0  0  0  0  0
    7.0853    2.9030    1.9252 H   0  0  0  0  0  0
    4.9085    1.7449    0.7903 H   0  0  0  0  0  0
    5.9149    1.2381   -0.5134 H   0  0  0  0  0  0
    3.7700   -0.1631    0.8492 H   0  0  0  0  0  0
    9.1596   -0.8358   -0.4948 H   0  0  0  0  0  0
    7.7492   -0.0487   -1.1201 H   0  0  0  0  0  0
    6.1747    1.0210    3.6812 H   0  0  0  0  0  0
    8.4808    2.1737    3.6133 H   0  0  0  0  0  0
    9.7043    2.4585    2.4265 H   0  0  0  0  0  0
    9.4597    1.5596   -1.2843 H   0  0  0  0  0  0
   10.0627    1.2743    0.3225 H   0  0  0  0  0  0
    4.9435   -1.2020    3.6169 H   0  0  0  0  0  0
    8.1978    4.4258    0.7542 H   0  0  0  0  0  0
    9.7927    3.8152    0.3905 H   0  0  0  0  0  0
    4.8436   -3.1485    0.6678 H   0  0  0  0  0  0
   10.7243    0.6131    4.5095 H   0  0  0  0  0  0
   10.9227   -1.8262    4.9444 H   0  0  0  0  0  0
    8.8371    5.3076   -1.4154 H   0  0  0  0  0  0
    9.2224    3.7282   -2.0342 H   0  0  0  0  0  0
    2.1767   -1.7036   -3.1395 H   0  0  0  0  0  0
    3.8627   -1.5822   -3.4751 H   0  0  0  0  0  0
    8.8837   -4.2415    3.2721 H   0  0  0  0  0  0
    1.3359   -2.0139   -1.0366 H   0  0  0  0  0  0
    2.3619   -1.9990    0.3783 H   0  0  0  0  0  0
    1.8116   -0.4759   -0.3385 H   0  0  0  0  0  0
    2.4197   -3.9776   -2.2454 H   0  0  0  0  0  0
    3.1717   -3.8991   -3.8125 H   0  0  0  0  0  0
    6.3874    5.8265   -0.7376 H   0  0  0  0  0  0
    7.5131    2.3282   -3.0090 H   0  0  0  0  0  0
    4.0290    5.5209   -1.4504 H   0  0  0  0  0  0
    5.1544    2.0268   -3.7084 H   0  0  0  0  0  0
    3.4079    3.6194   -2.9299 H   0  0  0  0  0  0
    3.6214   -4.9366   -0.4421 H   0  0  0  0  0  0
    5.7945   -3.3594   -3.8225 H   0  0  0  0  0  0
    5.7459   -5.7724    0.5291 H   0  0  0  0  0  0
    7.9169   -4.1969   -2.8433 H   0  0  0  0  0  0
    7.8969   -5.3978   -0.6635 H   0  0  0  0  0  0
    8.2363    2.3686    0.2525 N   0  3  2  0  0  0
    7.4251    2.3435   -0.3499 H   0  0  0  0  0  0
  1  8  1  0  0  0
  1 20  1  0  0  0
  2 10  1  0  0  0
  2 57  1  0  0  0
  3 21  2  0  0  0
  4 24  1  0  0  0
  4 64  1  0  0  0
  5 21  1  0  0  0
  5 27  1  0  0  0
  5 28  1  0  0  0
  6  7  1  0  0  0
  6  8  1  0  0  0
  6 13  1  0  0  0
  6 14  1  0  0  0
  7  9  1  0  0  0
  7 11  1  0  0  0
  7 15  1  0  0  0
  8 10  1  0  0  0
  8 42  1  0  0  0
  9 16  1  0  0  0
  9 43  1  0  0  0
  9 80  1  0  0  0
 10 12  1  0  0  0
 10 18  1  0  0  0
 11 12  1  0  0  0
 11 44  1  0  0  0
 11 45  1  0  0  0
 12 21  1  0  0  0
 12 46  1  0  0  0
 13 17  1  0  0  0
 13 47  1  0  0  0
 13 48  1  0  0  0
 14 19  2  0  0  0
 14 20  1  0  0  0
 15 18  2  0  0  0
 15 49  1  0  0  0
 16 19  1  0  0  0
 16 50  1  0  0  0
 16 51  1  0  0  0
 17 52  1  0  0  0
 17 53  1  0  0  0
 17 80  1  0  0  0
 18 54  1  0  0  0
 19 23  1  0  0  0
 20 24  2  0  0  0
 22 26  1  0  0  0
 22 55  1  0  0  0
 22 56  1  0  0  0
 22 80  1  0  0  0
 23 25  2  0  0  0
 23 58  1  0  0  0
 24 25  1  0  0  0
 25 59  1  0  0  0
 26 29  1  0  0  0
 26 60  1  0  0  0
 26 61  1  0  0  0
 27 30  1  0  0  0
 27 62  1  0  0  0
 27 63  1  0  0  0
 28 65  1  0  0  0
 28 66  1  0  0  0
 28 67  1  0  0  0
 29 31  2  0  0  0
 29 32  1  0  0  0
 30 33  1  0  0  0
 30 68  1  0  0  0
 30 69  1  0  0  0
 31 34  1  0  0  0
 31 70  1  0  0  0
 32 35  2  0  0  0
 32 71  1  0  0  0
 33 37  2  0  0  0
 33 38  1  0  0  0
 34 36  2  0  0  0
 34 72  1  0  0  0
 35 36  1  0  0  0
 35 73  1  0  0  0
 36 74  1  0  0  0
 37 39  1  0  0  0
 37 75  1  0  0  0
 38 40  2  0  0  0
 38 76  1  0  0  0
 39 41  2  0  0  0
 39 77  1  0  0  0
 40 41  1  0  0  0
 40 78  1  0  0  0
 41 79  1  0  0  0
 80 81  1  0  0  0
M  CHG  1  80   1
M  END
> <LID>
L018284

> <PC_CID>
44214647

> <Names>


> <CAS_Numbers>


$$$$
44214646
                    3D
 Structure written by MMmdl.
 77 84  0  0  1  0            999 V2000
    0.4783   -6.7093  -12.1158 O   0  0  0  0  0  0
    0.7208   -9.7907  -12.8827 O   0  0  0  0  0  0
    2.4228  -12.0465  -11.6351 O   0  0  0  0  0  0
   -1.2901   -4.2341  -12.1657 O   0  0  0  0  0  0
    4.4612  -11.1984  -12.0982 N   0  0  0  0  0  0
    1.7451   -8.4772   -9.1366 C   0  0  2  0  0  0
    1.5396   -7.3539  -10.1531 C   0  0  2  0  0  0
    0.7694   -7.8970  -11.3542 C   0  0  2  0  0  0
    1.1274   -9.4007  -11.5859 C   0  0  1  0  0  0
    2.0231   -7.6943   -7.8075 C   0  0  1  0  0  0
    2.8653   -9.4166   -9.7257 C   0  0  0  0  0  0
    0.5004   -9.4248   -9.0885 C   0  0  0  0  0  0
    2.6385   -9.6755  -11.2705 C   0  0  1  0  0  0
    2.9011   -6.6083  -10.3805 C   0  0  0  0  0  0
    0.2919  -10.1390  -10.4714 C   0  0  0  0  0  0
    0.5755   -6.2889   -9.8380 C   0  0  0  0  0  0
    0.8383   -6.7261   -7.4301 C   0  0  0  0  0  0
    3.4169   -5.9839   -9.0618 C   0  0  0  0  0  0
    0.2550   -5.8505   -8.5576 C   0  0  0  0  0  0
    0.1049   -5.8577  -11.0745 C   0  0  0  0  0  0
    4.5378   -7.5982   -7.5153 C   0  0  0  0  0  0
    3.1770  -11.0742  -11.6761 C   0  0  0  0  0  0
    5.3279   -6.8146   -6.4865 C   0  0  0  0  0  0
   -0.6211   -4.7430   -8.5298 C   0  0  0  0  0  0
   -0.7578   -4.7436  -11.0184 C   0  0  0  0  0  0
    6.7568   -7.1986   -6.1777 C   0  0  0  0  0  0
    6.4645   -5.9054   -6.8964 C   0  0  0  0  0  0
   -1.0986   -4.1843   -9.7522 C   0  0  0  0  0  0
    4.9943  -12.4916  -12.5483 C   0  0  0  0  0  0
    5.4284  -10.0964  -12.1203 C   0  0  0  0  0  0
    5.5268  -13.3201  -11.3671 C   0  0  0  0  0  0
    6.0878  -14.6558  -11.8148 C   0  0  0  0  0  0
    5.2411  -15.7793  -11.9201 C   0  0  0  0  0  0
    7.4564  -14.7795  -12.1341 C   0  0  0  0  0  0
    5.7605  -17.0195  -12.3399 C   0  0  0  0  0  0
    7.9752  -16.0201  -12.5538 C   0  0  0  0  0  0
    7.1275  -17.1402  -12.6564 C   0  0  0  0  0  0
   -0.2903   -8.0669  -11.1158 H   0  0  0  0  0  0
    2.1229   -8.4049   -6.9863 H   0  0  0  0  0  0
    3.8654   -9.0255   -9.5873 H   0  0  0  0  0  0
    2.8733  -10.3566   -9.1703 H   0  0  0  0  0  0
   -0.3970   -8.8594   -8.8355 H   0  0  0  0  0  0
    0.6126  -10.1698   -8.2999 H   0  0  0  0  0  0
    3.1748   -8.9499  -11.8758 H   0  0  0  0  0  0
    3.6909   -7.2294  -10.7890 H   0  0  0  0  0  0
    2.7957   -5.8167  -11.1236 H   0  0  0  0  0  0
   -0.7715  -10.1490  -10.7173 H   0  0  0  0  0  0
    0.5532  -11.1903  -10.3797 H   0  0  0  0  0  0
    1.1351   -6.0758   -6.6064 H   0  0  0  0  0  0
    0.0108   -7.3212   -7.0429 H   0  0  0  0  0  0
    2.8509   -5.0771   -8.8485 H   0  0  0  0  0  0
    4.4468   -5.6452   -9.1801 H   0  0  0  0  0  0
    4.3200   -8.5780   -7.0893 H   0  0  0  0  0  0
    5.1637   -7.7703   -8.3916 H   0  0  0  0  0  0
    0.8557  -10.7230  -12.9699 H   0  0  0  0  0  0
    4.7407   -6.5009   -5.6249 H   0  0  0  0  0  0
   -0.9406   -4.3282   -7.5851 H   0  0  0  0  0  0
    7.2044   -8.0035   -6.7576 H   0  0  0  0  0  0
    7.0821   -7.1349   -5.1412 H   0  0  0  0  0  0
    6.5930   -4.9799   -6.3386 H   0  0  0  0  0  0
    6.7216   -5.8515   -7.9525 H   0  0  0  0  0  0
   -1.7701   -3.3391   -9.7141 H   0  0  0  0  0  0
    4.2298  -13.0557  -13.0858 H   0  0  0  0  0  0
    5.7901  -12.3340  -13.2779 H   0  0  0  0  0  0
   -1.0098   -4.7066  -12.9351 H   0  0  0  0  0  0
    6.4497  -10.4507  -12.2643 H   0  0  0  0  0  0
    5.2040   -9.4075  -12.9354 H   0  0  0  0  0  0
    5.4268   -9.5398  -11.1838 H   0  0  0  0  0  0
    6.3041  -12.7656  -10.8397 H   0  0  0  0  0  0
    4.7323  -13.4976  -10.6409 H   0  0  0  0  0  0
    4.1911  -15.6920  -11.6811 H   0  0  0  0  0  0
    8.1114  -13.9237  -12.0598 H   0  0  0  0  0  0
    5.1100  -17.8779  -12.4198 H   0  0  0  0  0  0
    9.0233  -16.1122  -12.7977 H   0  0  0  0  0  0
    7.5256  -18.0912  -12.9786 H   0  0  0  0  0  0
    3.2861   -6.8832   -7.8753 N   0  3  2  0  0  0
    3.1856   -6.2451   -7.0987 H   0  0  0  0  0  0
  1  8  1  0  0  0
  1 20  1  0  0  0
  2  9  1  0  0  0
  2 55  1  0  0  0
  3 22  2  0  0  0
  4 25  1  0  0  0
  4 65  1  0  0  0
  5 22  1  0  0  0
  5 29  1  0  0  0
  5 30  1  0  0  0
  6  7  1  0  0  0
  6 10  1  0  0  0
  6 11  1  0  0  0
  6 12  1  0  0  0
  7  8  1  0  0  0
  7 14  1  0  0  0
  7 16  1  0  0  0
  8  9  1  0  0  0
  8 38  1  0  0  0
  9 13  1  0  0  0
  9 15  1  0  0  0
 10 17  1  0  0  0
 10 39  1  0  0  0
 10 76  1  0  0  0
 11 13  1  0  0  0
 11 40  1  0  0  0
 11 41  1  0  0  0
 12 15  1  0  0  0
 12 42  1  0  0  0
 12 43  1  0  0  0
 13 22  1  0  0  0
 13 44  1  0  0  0
 14 18  1  0  0  0
 14 45  1  0  0  0
 14 46  1  0  0  0
 15 47  1  0  0  0
 15 48  1  0  0  0
 16 19  2  0  0  0
 16 20  1  0  0  0
 17 19  1  0  0  0
 17 49  1  0  0  0
 17 50  1  0  0  0
 18 51  1  0  0  0
 18 52  1  0  0  0
 18 76  1  0  0  0
 19 24  1  0  0  0
 20 25  2  0  0  0
 21 23  1  0  0  0
 21 53  1  0  0  0
 21 54  1  0  0  0
 21 76  1  0  0  0
 23 26  1  0  0  0
 23 27  1  0  0  0
 23 56  1  0  0  0
 24 28  2  0  0  0
 24 57  1  0  0  0
 25 28  1  0  0  0
 26 27  1  0  0  0
 26 58  1  0  0  0
 26 59  1  0  0  0
 27 60  1  0  0  0
 27 61  1  0  0  0
 28 62  1  0  0  0
 29 31  1  0  0  0
 29 63  1  0  0  0
 29 64  1  0  0  0
 30 66  1  0  0  0
 30 67  1  0  0  0
 30 68  1  0  0  0
 31 32  1  0  0  0
 31 69  1  0  0  0
 31 70  1  0  0  0
 32 33  2  0  0  0
 32 34  1  0  0  0
 33 35  1  0  0  0
 33 71  1  0  0  0
 34 36  2  0  0  0
 34 72  1  0  0  0
 35 37  2  0  0  0
 35 73  1  0  0  0
 36 37  1  0  0  0
 36 74  1  0  0  0
 37 75  1  0  0  0
 76 77  1  0  0  0
M  CHG  1  76   1
M  END
> <LID>
L018283

> <PC_CID>
44214646

> <Names>


> <CAS_Numbers>


$$$$
44214649
                    3D
 Structure written by MMmdl.
 72 79  0  0  1  0            999 V2000
    5.1413   -1.8675   -2.1045 O   0  0  0  0  0  0
    7.4427   -2.8755   -0.5169 O   0  0  0  0  0  0
    6.9063   -2.9044    2.2906 O   0  0  0  0  0  0
    4.4329   -1.9879   -4.9682 O   0  0  0  0  0  0
    5.6010   -1.1616    2.8604 N   0  0  0  0  0  0
    5.2109    0.1933   -0.8560 C   0  0  2  0  0  0
    6.4412    1.0540   -0.4581 C   0  0  1  0  0  0
    5.5219   -1.3470   -0.8137 C   0  0  2  0  0  0
    5.9928    2.5314   -0.6443 C   0  0  1  0  0  0
    7.0340   -1.5224   -0.4532 C   0  0  1  0  0  0
    6.9120    0.6279    0.9658 C   0  0  0  0  0  0
    3.9595    0.5427   -0.0095 C   0  0  0  0  0  0
    7.2486   -0.9179    0.9898 C   0  0  1  0  0  0
    4.9502    0.4239   -2.3111 C   0  0  0  0  0  0
    7.6030    0.6482   -1.3686 C   0  0  0  0  0  0
    5.5466    2.8335   -2.1205 C   0  0  0  0  0  0
    3.6596    2.0504    0.0495 C   0  0  0  0  0  0
    7.8774   -0.6652   -1.3896 C   0  0  0  0  0  0
    4.9754    1.6735   -2.9508 C   0  0  0  0  0  0
    4.8473   -0.8107   -2.9184 C   0  0  0  0  0  0
    4.6482    4.2652    0.5931 C   0  0  0  0  0  0
    5.6866    4.8561    1.5300 C   0  0  0  0  0  0
    6.5582   -1.7372    2.1128 C   0  0  0  0  0  0
    4.6949    1.6561   -4.3336 C   0  0  0  0  0  0
    5.3883    6.1321    2.2831 C   0  0  0  0  0  0
    5.4881    4.8239    3.0281 C   0  0  0  0  0  0
    4.5656   -0.8069   -4.2995 C   0  0  0  0  0  0
    4.4563    0.4243   -4.9942 C   0  0  0  0  0  0
    4.8428   -1.8152    3.9267 C   0  0  0  0  0  0
    3.3693   -2.0565    3.5395 C   0  0  0  0  0  0
    3.1648   -2.8026    2.2282 C   0  0  0  0  0  0
    3.8090   -4.0371    1.9952 C   0  0  0  0  0  0
    2.3176   -2.2655    1.2353 C   0  0  0  0  0  0
    3.6327   -4.7103    0.7708 C   0  0  0  0  0  0
    2.1387   -2.9402    0.0120 C   0  0  0  0  0  0
    2.8003   -4.1605   -0.2226 C   0  0  0  0  0  0
    4.9019   -1.8542   -0.0761 H   0  0  0  0  0  0
    6.8357    3.1777   -0.4015 H   0  0  0  0  0  0
    6.1878    0.9334    1.7168 H   0  0  0  0  0  0
    7.8138    1.1871    1.2203 H   0  0  0  0  0  0
    3.0871    0.0128   -0.3929 H   0  0  0  0  0  0
    4.0960    0.1827    1.0088 H   0  0  0  0  0  0
    8.3138   -0.9994    1.2146 H   0  0  0  0  0  0
    8.1292    1.3777   -1.9665 H   0  0  0  0  0  0
    6.4298    3.1674   -2.6661 H   0  0  0  0  0  0
    4.8528    3.6708   -2.1775 H   0  0  0  0  0  0
    2.9246    2.2312    0.8348 H   0  0  0  0  0  0
    3.1996    2.3903   -0.8787 H   0  0  0  0  0  0
    8.6554   -1.1047   -1.9965 H   0  0  0  0  0  0
    3.6680    4.3924    1.0553 H   0  0  0  0  0  0
    4.6262    4.8437   -0.3294 H   0  0  0  0  0  0
    6.7127    4.7669    1.1798 H   0  0  0  0  0  0
    7.1092   -3.3248    0.2470 H   0  0  0  0  0  0
    4.7111    2.5752   -4.9007 H   0  0  0  0  0  0
    4.3986    6.5708    2.1715 H   0  0  0  0  0  0
    6.2017    6.8443    2.4077 H   0  0  0  0  0  0
    6.3683    4.6638    3.6476 H   0  0  0  0  0  0
    4.5648    4.3937    3.4113 H   0  0  0  0  0  0
    4.2549    0.4216   -6.0555 H   0  0  0  0  0  0
    5.3719   -0.1977    2.6725 H   0  0  0  0  0  0
    4.5558   -2.7360   -4.4033 H   0  0  0  0  0  0
    4.8854   -1.1820    4.8131 H   0  0  0  0  0  0
    5.3071   -2.7586    4.2176 H   0  0  0  0  0  0
    2.8713   -2.6153    4.3324 H   0  0  0  0  0  0
    2.8581   -1.0946    3.4832 H   0  0  0  0  0  0
    4.4523   -4.4669    2.7489 H   0  0  0  0  0  0
    1.8077   -1.3283    1.4029 H   0  0  0  0  0  0
    4.1375   -5.6486    0.5937 H   0  0  0  0  0  0
    1.4970   -2.5195   -0.7482 H   0  0  0  0  0  0
    2.6667   -4.6761   -1.1622 H   0  0  0  0  0  0
    4.8962    2.8237    0.3305 N   0  3  2  0  0  0
    5.2261    2.4671    1.2157 H   0  0  0  0  0  0
  1  8  1  0  0  0
  1 20  1  0  0  0
  2 10  1  0  0  0
  2 53  1  0  0  0
  3 23  2  0  0  0
  4 27  1  0  0  0
  4 61  1  0  0  0
  5 23  1  0  0  0
  5 29  1  0  0  0
  5 60  1  0  0  0
  6  7  1  0  0  0
  6  8  1  0  0  0
  6 12  1  0  0  0
  6 14  1  0  0  0
  7  9  1  0  0  0
  7 11  1  0  0  0
  7 15  1  0  0  0
  8 10  1  0  0  0
  8 37  1  0  0  0
  9 16  1  0  0  0
  9 38  1  0  0  0
  9 71  1  0  0  0
 10 13  1  0  0  0
 10 18  1  0  0  0
 11 13  1  0  0  0
 11 39  1  0  0  0
 11 40  1  0  0  0
 12 17  1  0  0  0
 12 41  1  0  0  0
 12 42  1  0  0  0
 13 23  1  0  0  0
 13 43  1  0  0  0
 14 19  2  0  0  0
 14 20  1  0  0  0
 15 18  2  0  0  0
 15 44  1  0  0  0
 16 19  1  0  0  0
 16 45  1  0  0  0
 16 46  1  0  0  0
 17 47  1  0  0  0
 17 48  1  0  0  0
 17 71  1  0  0  0
 18 49  1  0  0  0
 19 24  1  0  0  0
 20 27  2  0  0  0
 21 22  1  0  0  0
 21 50  1  0  0  0
 21 51  1  0  0  0
 21 71  1  0  0  0
 22 25  1  0  0  0
 22 26  1  0  0  0
 22 52  1  0  0  0
 24 28  2  0  0  0
 24 54  1  0  0  0
 25 26  1  0  0  0
 25 55  1  0  0  0
 25 56  1  0  0  0
 26 57  1  0  0  0
 26 58  1  0  0  0
 27 28  1  0  0  0
 28 59  1  0  0  0
 29 30  1  0  0  0
 29 62  1  0  0  0
 29 63  1  0  0  0
 30 31  1  0  0  0
 30 64  1  0  0  0
 30 65  1  0  0  0
 31 32  2  0  0  0
 31 33  1  0  0  0
 32 34  1  0  0  0
 32 66  1  0  0  0
 33 35  2  0  0  0
 33 67  1  0  0  0
 34 36  2  0  0  0
 34 68  1  0  0  0
 35 36  1  0  0  0
 35 69  1  0  0  0
 36 70  1  0  0  0
 71 72  1  0  0  0
M  CHG  1  71   1
M  END
> <LID>
L018286

> <PC_CID>
44214649

> <Names>


> <CAS_Numbers>


$$$$
44214648
                    3D
 Structure written by MMmdl.
 69 76  0  0  1  0            999 V2000
    2.5268    2.5502   -0.7219 O   0  0  0  0  0  0
    2.9704    5.6614   -1.7382 O   0  0  0  0  0  0
    6.8544    5.5424    0.2069 O   0  0  0  0  0  0
    2.3958   -0.5179   -0.9541 O   0  0  0  0  0  0
    5.7406    4.7462   -1.5780 N   0  0  0  0  0  0
    2.5349    3.6422    1.2449 C   0  0  2  0  0  0
    3.1208    4.9819    2.3659 C   0  0  1  0  0  0
    3.0811    3.7648   -0.1120 C   0  0  2  0  0  0
    2.9914    4.3434    4.1237 C   0  0  1  0  0  0
    3.0939    5.3450   -0.3660 C   0  0  1  0  0  0
    4.4603    5.6755    1.8221 C   0  0  0  0  0  0
    1.0545    3.6562    1.5211 C   0  0  0  0  0  0
    4.4647    5.8769    0.2387 C   0  0  1  0  0  0
    2.6391    2.0320    1.5502 C   0  0  0  0  0  0
    2.1992    6.1132    1.8601 C   0  0  0  0  0  0
    2.7913    2.4639    4.4084 C   0  0  0  0  0  0
    1.3715    3.6066    3.0082 C   0  0  0  0  0  0
    2.1181    6.2066    0.4986 C   0  0  0  0  0  0
    2.6177    1.3634    2.9222 C   0  0  0  0  0  0
    2.5730    1.5393    0.2671 C   0  0  0  0  0  0
    4.7003    3.0504    3.0664 C   0  0  0  0  0  0
    5.8283    3.5665    3.9758 C   0  0  0  0  0  0
    5.7923    5.3773   -0.3943 C   0  0  0  0  0  0
    2.5588   -0.0389    2.7726 C   0  0  0  0  0  0
    6.4190    2.7050    5.0717 C   0  0  0  0  0  0
    7.2157    2.9823    3.8235 C   0  0  0  0  0  0
    2.4854    0.1286    0.2438 C   0  0  0  0  0  0
    2.4897   -0.6250    1.4658 C   0  0  0  0  0  0
    6.8271    3.9486   -2.1324 C   0  0  0  0  0  0
    7.0038    2.6430   -1.3726 C   0  0  0  0  0  0
    5.9796    1.6717   -1.3862 C   0  0  0  0  0  0
    8.1698    2.4148   -0.6116 C   0  0  0  0  0  0
    6.1181    0.4850   -0.6409 C   0  0  0  0  0  0
    8.3078    1.2275    0.1337 C   0  0  0  0  0  0
    7.2815    0.2633    0.1206 C   0  0  0  0  0  0
    4.1194    3.4521   -0.0573 H   0  0  0  0  0  0
    3.7968    4.7238    4.7441 H   0  0  0  0  0  0
    4.5461    6.6604    2.2869 H   0  0  0  0  0  0
    5.3903    5.2291    2.1367 H   0  0  0  0  0  0
    0.4745    2.7983    1.1695 H   0  0  0  0  0  0
    0.4538    4.5165    1.2357 H   0  0  0  0  0  0
    4.4980    6.9535    0.0578 H   0  0  0  0  0  0
    1.6072    6.7035    2.5442 H   0  0  0  0  0  0
    1.9409    2.2771    5.0765 H   0  0  0  0  0  0
    3.5793    2.0506    5.0579 H   0  0  0  0  0  0
    0.8511    4.4686    3.4499 H   0  0  0  0  0  0
    0.7078    2.8295    3.4092 H   0  0  0  0  0  0
    1.4714    6.9228    0.0130 H   0  0  0  0  0  0
    4.8611    1.9730    3.1220 H   0  0  0  0  0  0
    4.9995    3.2029    2.0317 H   0  0  0  0  0  0
    5.8371    4.6383    4.1587 H   0  0  0  0  0  0
    2.1694    5.2788   -2.0648 H   0  0  0  0  0  0
    2.5671   -0.6729    3.6470 H   0  0  0  0  0  0
    6.0308    1.6967    5.2011 H   0  0  0  0  0  0
    8.0590    3.6652    3.9052 H   0  0  0  0  0  0
    7.3484    2.1630    3.1191 H   0  0  0  0  0  0
    6.7292    3.2038    5.9877 H   0  0  0  0  0  0
    2.4345   -1.7020    1.4028 H   0  0  0  0  0  0
    4.8462    4.7014   -2.0476 H   0  0  0  0  0  0
    2.3266   -1.4563   -0.8689 H   0  0  0  0  0  0
    6.5967    3.7223   -3.1737 H   0  0  0  0  0  0
    7.7550    4.5230   -2.1362 H   0  0  0  0  0  0
    5.0789    1.8400   -1.9586 H   0  0  0  0  0  0
    8.9552    3.1561   -0.5845 H   0  0  0  0  0  0
    5.3301   -0.2535   -0.6510 H   0  0  0  0  0  0
    9.1994    1.0590    0.7196 H   0  0  0  0  0  0
    7.3867   -0.6459    0.6940 H   0  0  0  0  0  0
    3.1558    3.5799    3.3916 N   0  3  2  0  0  0
    3.3116    3.9948    2.4996 H   0  0  0  0  0  0
  1  8  1  0  0  0
  1 20  1  0  0  0
  2 10  1  0  0  0
  2 52  1  0  0  0
  3 23  2  0  0  0
  4 27  1  0  0  0
  4 60  1  0  0  0
  5 23  1  0  0  0
  5 29  1  0  0  0
  5 59  1  0  0  0
  6  7  1  0  0  0
  6  8  1  0  0  0
  6 12  1  0  0  0
  6 14  1  0  0  0
  7  9  1  0  0  0
  7 11  1  0  0  0
  7 15  1  0  0  0
  8 10  1  0  0  0
  8 36  1  0  0  0
  9 16  1  0  0  0
  9 37  1  0  0  0
  9 68  1  0  0  0
 10 13  1  0  0  0
 10 18  1  0  0  0
 11 13  1  0  0  0
 11 38  1  0  0  0
 11 39  1  0  0  0
 12 17  1  0  0  0
 12 40  1  0  0  0
 12 41  1  0  0  0
 13 23  1  0  0  0
 13 42  1  0  0  0
 14 19  2  0  0  0
 14 20  1  0  0  0
 15 18  2  0  0  0
 15 43  1  0  0  0
 16 19  1  0  0  0
 16 44  1  0  0  0
 16 45  1  0  0  0
 17 46  1  0  0  0
 17 47  1  0  0  0
 17 68  1  0  0  0
 18 48  1  0  0  0
 19 24  1  0  0  0
 20 27  2  0  0  0
 21 22  1  0  0  0
 21 49  1  0  0  0
 21 50  1  0  0  0
 21 68  1  0  0  0
 22 25  1  0  0  0
 22 26  1  0  0  0
 22 51  1  0  0  0
 24 28  2  0  0  0
 24 53  1  0  0  0
 25 26  1  0  0  0
 25 54  1  0  0  0
 25 57  1  0  0  0
 26 55  1  0  0  0
 26 56  1  0  0  0
 27 28  1  0  0  0
 28 58  1  0  0  0
 29 30  1  0  0  0
 29 61  1  0  0  0
 29 62  1  0  0  0
 30 31  2  0  0  0
 30 32  1  0  0  0
 31 33  1  0  0  0
 31 63  1  0  0  0
 32 34  2  0  0  0
 32 64  1  0  0  0
 33 35  2  0  0  0
 33 65  1  0  0  0
 34 35  1  0  0  0
 34 66  1  0  0  0
 35 67  1  0  0  0
 68 69  1  0  0  0
M  CHG  1  68   1
M  END
> <LID>
L018285

> <PC_CID>
44214648

> <Names>


> <CAS_Numbers>


$$$$
44216047
                    3D
 Structure written by MMmdl.
 71 74  0  0  1  0            999 V2000
    4.5695   -6.8324   -1.0323 S   0  0  0  0  0  0
    1.7419    5.3699   -1.0035 O   0  0  0  0  0  0
   -7.3205    0.5100   -0.0860 O   0  0  0  0  0  0
    3.3088   -5.1137   -2.5288 N   0  0  0  0  0  0
    3.4438    4.7345    0.3711 N   0  0  0  0  0  0
   -5.2241    1.2458   -0.6183 N   0  0  0  0  0  0
   -0.9664   -2.8632    0.8602 C   0  0  0  0  0  0
    1.2771   -1.8133    0.4216 C   0  0  0  0  0  0
   -0.2028   -1.5551    0.6837 C   0  0  0  0  0  0
   -0.7205   -3.8124   -0.3252 C   0  0  0  0  0  0
    1.4739   -2.7766   -0.7597 C   0  0  0  0  0  0
   -0.7683   -0.3214    0.7421 C   0  0  0  0  0  0
    0.9668   -5.0487   -1.6263 C   0  0  0  0  0  0
    0.0146    0.9016    0.4994 C   0  0  0  0  0  0
   -2.1939   -0.1290    1.0602 C   0  0  0  0  0  0
    2.3726   -5.5730   -1.5960 C   0  0  0  0  0  0
    0.4933    1.2020   -0.7941 C   0  0  0  0  0  0
    0.2478    1.8134    1.5499 C   0  0  0  0  0  0
   -3.0592    0.4465    0.1056 C   0  0  0  0  0  0
   -2.7008   -0.4740    2.3313 C   0  0  0  0  0  0
    2.8853   -6.5028   -0.7230 C   0  0  0  0  0  0
    1.4884    3.2763    0.0322 C   0  0  0  0  0  0
    1.2232    2.3833   -1.0271 C   0  0  0  0  0  0
    0.9772    2.9953    1.3183 C   0  0  0  0  0  0
   -4.4246    0.6501    0.3949 C   0  0  0  0  0  0
   -4.0578   -0.2609    2.6360 C   0  0  0  0  0  0
   -4.9188    0.3010    1.6745 C   0  0  0  0  0  0
    2.2429    4.5465   -0.2368 C   0  0  0  0  0  0
    4.5026   -5.6824   -2.3567 C   0  0  0  0  0  0
    4.1813    5.9942    0.1956 C   0  0  0  0  0  0
    4.1627    3.7162    1.1548 C   0  0  0  0  0  0
    3.7495    7.0425    1.2306 C   0  0  0  0  0  0
    4.8902    2.7116    0.2491 C   0  0  0  0  0  0
   -6.5558    1.1652   -0.7924 C   0  0  0  0  0  0
   -7.1112    1.9370   -1.9846 C   0  0  0  0  0  0
   -0.6319   -3.3325    1.7861 H   0  0  0  0  0  0
   -2.0391   -2.7092    0.9643 H   0  0  0  0  0  0
    1.8427   -0.8997    0.2478 H   0  0  0  0  0  0
    1.7033   -2.2550    1.3232 H   0  0  0  0  0  0
   -1.2218   -4.7616   -0.1317 H   0  0  0  0  0  0
   -1.1679   -3.3978   -1.2304 H   0  0  0  0  0  0
    1.1423   -2.3029   -1.6852 H   0  0  0  0  0  0
    2.5395   -2.9761   -0.8722 H   0  0  0  0  0  0
    0.2777   -5.8845   -1.4982 H   0  0  0  0  0  0
    0.7310   -4.6096   -2.5972 H   0  0  0  0  0  0
    0.3002    0.5245   -1.6130 H   0  0  0  0  0  0
   -0.1346    1.6082    2.5393 H   0  0  0  0  0  0
   -2.6696    0.7265   -0.8628 H   0  0  0  0  0  0
   -2.0466   -0.8993    3.0784 H   0  0  0  0  0  0
    2.3784   -7.0152    0.0815 H   0  0  0  0  0  0
    1.5830    2.5992   -2.0229 H   0  0  0  0  0  0
    1.1418    3.6862    2.1328 H   0  0  0  0  0  0
   -4.4385   -0.5217    3.6125 H   0  0  0  0  0  0
   -5.9492    0.4715    1.9464 H   0  0  0  0  0  0
    5.3325   -5.4298   -3.0003 H   0  0  0  0  0  0
   -4.7166    1.7461   -1.3333 H   0  0  0  0  0  0
    5.2547    5.8196    0.2816 H   0  0  0  0  0  0
    4.0435    6.3909   -0.8118 H   0  0  0  0  0  0
    4.8934    4.1992    1.8052 H   0  0  0  0  0  0
    3.5030    3.1896    1.8411 H   0  0  0  0  0  0
    4.3131    7.9669    1.1032 H   0  0  0  0  0  0
    2.6908    7.2844    1.1323 H   0  0  0  0  0  0
    3.9198    6.6871    2.2472 H   0  0  0  0  0  0
    5.4500    1.9903    0.8448 H   0  0  0  0  0  0
    4.1914    2.1521   -0.3728 H   0  0  0  0  0  0
    5.5969    3.2155   -0.4109 H   0  0  0  0  0  0
   -8.1965    1.8429   -2.0356 H   0  0  0  0  0  0
   -6.8652    2.9961   -1.9022 H   0  0  0  0  0  0
   -6.6919    1.5544   -2.9154 H   0  0  0  0  0  0
    0.7280   -4.0476   -0.5561 N   0  3  2  0  0  0
    1.0860   -4.4571    0.2950 H   0  0  0  0  0  0
  1 21  1  0  0  0
  1 29  1  0  0  0
  2 28  2  0  0  0
  3 34  2  0  0  0
  4 16  1  0  0  0
  4 29  2  0  0  0
  5 28  1  0  0  0
  5 30  1  0  0  0
  5 31  1  0  0  0
  6 25  1  0  0  0
  6 34  1  0  0  0
  6 56  1  0  0  0
  7  9  1  0  0  0
  7 10  1  0  0  0
  7 36  1  0  0  0
  7 37  1  0  0  0
  8  9  1  0  0  0
  8 11  1  0  0  0
  8 38  1  0  0  0
  8 39  1  0  0  0
  9 12  2  0  0  0
 10 40  1  0  0  0
 10 41  1  0  0  0
 10 70  1  0  0  0
 11 42  1  0  0  0
 11 43  1  0  0  0
 11 70  1  0  0  0
 12 14  1  0  0  0
 12 15  1  0  0  0
 13 16  1  0  0  0
 13 44  1  0  0  0
 13 45  1  0  0  0
 13 70  1  0  0  0
 14 17  2  0  0  0
 14 18  1  0  0  0
 15 19  2  0  0  0
 15 20  1  0  0  0
 16 21  2  0  0  0
 17 23  1  0  0  0
 17 46  1  0  0  0
 18 24  2  0  0  0
 18 47  1  0  0  0
 19 25  1  0  0  0
 19 48  1  0  0  0
 20 26  2  0  0  0
 20 49  1  0  0  0
 21 50  1  0  0  0
 22 23  2  0  0  0
 22 24  1  0  0  0
 22 28  1  0  0  0
 23 51  1  0  0  0
 24 52  1  0  0  0
 25 27  2  0  0  0
 26 27  1  0  0  0
 26 53  1  0  0  0
 27 54  1  0  0  0
 29 55  1  0  0  0
 30 32  1  0  0  0
 30 57  1  0  0  0
 30 58  1  0  0  0
 31 33  1  0  0  0
 31 59  1  0  0  0
 31 60  1  0  0  0
 32 61  1  0  0  0
 32 62  1  0  0  0
 32 63  1  0  0  0
 33 64  1  0  0  0
 33 65  1  0  0  0
 33 66  1  0  0  0
 34 35  1  0  0  0
 35 67  1  0  0  0
 35 68  1  0  0  0
 35 69  1  0  0  0
 70 71  1  0  0  0
M  CHG  1  70   1
M  END
> <LID>
L023133

> <PC_CID>
44216047

> <Names>


> <CAS_Numbers>


$$$$
44216046
                    3D
 Structure written by MMmdl.
 74 77  0  0  1  0            999 V2000
    5.4924    1.4927   -1.5115 O   0  0  0  0  0  0
    0.4523   -7.4527   -0.4438 O   0  0  0  0  0  0
   -5.0672    3.3546   -1.6900 N   0  0  0  0  0  0
    5.0292    3.1807   -0.0537 N   0  0  0  0  0  0
    1.1881   -5.3538   -0.9666 N   0  0  0  0  0  0
   -2.5588   -1.0631    1.2090 C   0  0  0  0  0  0
   -1.4961    1.1698    0.7469 C   0  0  0  0  0  0
   -3.6381   -0.7320    0.1640 C   0  0  0  0  0  0
   -2.5907    1.4521   -0.2944 C   0  0  0  0  0  0
   -1.2574   -0.3279    0.9061 C   0  0  0  0  0  0
   -0.0457   -0.9295    0.7840 C   0  0  0  0  0  0
   -4.9668    1.0513   -0.8932 C   0  0  0  0  0  0
    1.1642   -0.1702    0.4270 C   0  0  0  0  0  0
    0.1359   -2.3741    1.0092 C   0  0  0  0  0  0
   -5.4502    2.4814   -0.7323 C   0  0  0  0  0  0
    1.3190    0.3653   -0.8699 C   0  0  0  0  0  0
    2.2074   -0.0187    1.3642 C   0  0  0  0  0  0
    0.5589   -3.2063   -0.0490 C   0  0  0  0  0  0
   -0.0660   -2.9342    2.2888 C   0  0  0  0  0  0
   -6.2521    2.8476    0.3693 C   0  0  0  0  0  0
    2.4882    1.0699   -1.2149 C   0  0  0  0  0  0
    3.3772    0.6857    1.0206 C   0  0  0  0  0  0
    3.5157    1.2503   -0.2655 C   0  0  0  0  0  0
    0.7501   -4.5897    0.1491 C   0  0  0  0  0  0
    0.1368   -4.3102    2.5013 C   0  0  0  0  0  0
    0.5456   -5.1374    1.4382 C   0  0  0  0  0  0
   -6.6726    4.1873    0.4760 C   0  0  0  0  0  0
    4.7636    1.9895   -0.6519 C   0  0  0  0  0  0
   -5.4760    4.6370   -1.5789 C   0  0  0  0  0  0
   -6.2765    5.1029   -0.5174 C   0  0  0  0  0  0
    6.2489    3.9279   -0.3957 C   0  0  0  0  0  0
    4.1155    3.8952    0.8541 C   0  0  0  0  0  0
    1.0410   -6.6723   -1.1907 C   0  0  0  0  0  0
    6.0836    4.7319   -1.6949 C   0  0  0  0  0  0
    4.5451    3.7855    2.3261 C   0  0  0  0  0  0
    1.6399   -7.1889   -2.4944 C   0  0  0  0  0  0
   -2.4293   -2.1435    1.2435 H   0  0  0  0  0  0
   -2.8987   -0.7624    2.2008 H   0  0  0  0  0  0
   -1.8084    1.5624    1.7153 H   0  0  0  0  0  0
   -0.5923    1.7178    0.4865 H   0  0  0  0  0  0
   -3.3537   -1.1448   -0.8055 H   0  0  0  0  0  0
   -4.5730   -1.2152    0.4507 H   0  0  0  0  0  0
   -2.2464    1.1546   -1.2863 H   0  0  0  0  0  0
   -2.7676    2.5270   -0.3317 H   0  0  0  0  0  0
   -4.6659    0.8595   -1.9248 H   0  0  0  0  0  0
   -5.8140    0.3945   -0.6907 H   0  0  0  0  0  0
    0.5382    0.2355   -1.6052 H   0  0  0  0  0  0
    2.1140   -0.4472    2.3516 H   0  0  0  0  0  0
    0.7299   -2.7767   -1.0258 H   0  0  0  0  0  0
   -0.3729   -2.3065    3.1128 H   0  0  0  0  0  0
   -6.5420    2.1223    1.1155 H   0  0  0  0  0  0
    2.5913    1.4754   -2.2113 H   0  0  0  0  0  0
    4.1724    0.7750    1.7450 H   0  0  0  0  0  0
   -0.0138   -4.7318    3.4842 H   0  0  0  0  0  0
    0.7132   -6.1844    1.6386 H   0  0  0  0  0  0
   -7.2879    4.5067    1.3043 H   0  0  0  0  0  0
   -5.1546    5.3118   -2.3584 H   0  0  0  0  0  0
   -6.5803    6.1381   -0.4684 H   0  0  0  0  0  0
    1.6132   -4.8255   -1.7144 H   0  0  0  0  0  0
    6.5118    4.6115    0.4119 H   0  0  0  0  0  0
    7.0985    3.2484   -0.4840 H   0  0  0  0  0  0
    4.0946    4.9486    0.5716 H   0  0  0  0  0  0
    3.0832    3.5624    0.7451 H   0  0  0  0  0  0
    6.9907    5.2935   -1.9185 H   0  0  0  0  0  0
    5.8820    4.0811   -2.5462 H   0  0  0  0  0  0
    5.2634    5.4459   -1.6177 H   0  0  0  0  0  0
    3.8504    4.3274    2.9679 H   0  0  0  0  0  0
    4.5685    2.7533    2.6697 H   0  0  0  0  0  0
    5.5359    4.2091    2.4894 H   0  0  0  0  0  0
    1.5034   -8.2672   -2.5832 H   0  0  0  0  0  0
    1.1593   -6.7132   -3.3497 H   0  0  0  0  0  0
    2.7087   -6.9769   -2.5343 H   0  0  0  0  0  0
   -3.8506    0.7319    0.0317 N   0  3  1  0  0  0
   -4.1406    1.0588    0.9424 H   0  0  0  0  0  0
  1 28  2  0  0  0
  2 33  2  0  0  0
  3 15  1  0  0  0
  3 29  2  0  0  0
  4 28  1  0  0  0
  4 31  1  0  0  0
  4 32  1  0  0  0
  5 24  1  0  0  0
  5 33  1  0  0  0
  5 59  1  0  0  0
  6  8  1  0  0  0
  6 10  1  0  0  0
  6 37  1  0  0  0
  6 38  1  0  0  0
  7  9  1  0  0  0
  7 10  1  0  0  0
  7 39  1  0  0  0
  7 40  1  0  0  0
  8 41  1  0  0  0
  8 42  1  0  0  0
  8 73  1  0  0  0
  9 43  1  0  0  0
  9 44  1  0  0  0
  9 73  1  0  0  0
 10 11  2  0  0  0
 11 13  1  0  0  0
 11 14  1  0  0  0
 12 15  1  0  0  0
 12 45  1  0  0  0
 12 46  1  0  0  0
 12 73  1  0  0  0
 13 16  2  0  0  0
 13 17  1  0  0  0
 14 18  2  0  0  0
 14 19  1  0  0  0
 15 20  2  0  0  0
 16 21  1  0  0  0
 16 47  1  0  0  0
 17 22  2  0  0  0
 17 48  1  0  0  0
 18 24  1  0  0  0
 18 49  1  0  0  0
 19 25  2  0  0  0
 19 50  1  0  0  0
 20 27  1  0  0  0
 20 51  1  0  0  0
 21 23  2  0  0  0
 21 52  1  0  0  0
 22 23  1  0  0  0
 22 53  1  0  0  0
 23 28  1  0  0  0
 24 26  2  0  0  0
 25 26  1  0  0  0
 25 54  1  0  0  0
 26 55  1  0  0  0
 27 30  2  0  0  0
 27 56  1  0  0  0
 29 30  1  0  0  0
 29 57  1  0  0  0
 30 58  1  0  0  0
 31 34  1  0  0  0
 31 60  1  0  0  0
 31 61  1  0  0  0
 32 35  1  0  0  0
 32 62  1  0  0  0
 32 63  1  0  0  0
 33 36  1  0  0  0
 34 64  1  0  0  0
 34 65  1  0  0  0
 34 66  1  0  0  0
 35 67  1  0  0  0
 35 68  1  0  0  0
 35 69  1  0  0  0
 36 70  1  0  0  0
 36 71  1  0  0  0
 36 72  1  0  0  0
 73 74  1  0  0  0
M  CHG  1  73   1
M  END
> <LID>
L023132

> <PC_CID>
44216046

> <Names>


> <CAS_Numbers>


$$$$
44216041
                    3D
 Structure written by MMmdl.
 75 78  0  0  1  0            999 V2000
    5.5068   -1.3344   -1.4420 O   0  0  0  0  0  0
    0.2598    7.4913   -0.3696 O   0  0  0  0  0  0
    5.1138   -3.0050    0.0561 N   0  0  0  0  0  0
    1.0554    5.4149   -0.8947 N   0  0  0  0  0  0
   -3.6829    0.6681    0.1012 C   0  0  0  0  0  0
   -2.5739   -1.4857   -0.3547 C   0  0  0  0  0  0
   -2.6323    1.0163    1.1697 C   0  0  0  0  0  0
   -1.5067   -1.1860    0.7100 C   0  0  0  0  0  0
   -1.3079    0.3157    0.8862 C   0  0  0  0  0  0
   -4.9486   -1.1365   -0.9956 C   0  0  0  0  0  0
   -0.1090    0.9474    0.7928 C   0  0  0  0  0  0
    1.1252    0.2200    0.4535 C   0  0  0  0  0  0
   -5.3953   -2.5824   -0.8692 C   0  0  0  0  0  0
    0.0336    2.3938    1.0339 C   0  0  0  0  0  0
    1.3184   -0.2984   -0.8451 C   0  0  0  0  0  0
    2.1516    0.0813    1.4110 C   0  0  0  0  0  0
    0.4585    3.2451   -0.0084 C   0  0  0  0  0  0
   -0.2080    2.9377    2.3135 C   0  0  0  0  0  0
   -4.9894   -3.5407   -1.8227 C   0  0  0  0  0  0
   -6.2235   -2.9736    0.2043 C   0  0  0  0  0  0
    2.5092   -0.9747   -1.1724 C   0  0  0  0  0  0
    3.3431   -0.5945    1.0851 C   0  0  0  0  0  0
    3.5196   -1.1459   -0.2030 C   0  0  0  0  0  0
    0.6127    4.6308    0.2052 C   0  0  0  0  0  0
   -0.0423    4.3162    2.5417 C   0  0  0  0  0  0
   -5.4040   -4.8811   -1.6994 C   0  0  0  0  0  0
   -6.6377   -4.3142    0.3265 C   0  0  0  0  0  0
    0.3686    5.1621    1.4944 C   0  0  0  0  0  0
   -6.2276   -5.2682   -0.6247 C   0  0  0  0  0  0
    4.7963   -1.8437   -0.5744 C   0  0  0  0  0  0
    6.3890   -3.6821   -0.2220 C   0  0  0  0  0  0
    4.2240   -3.7414    0.9692 C   0  0  0  0  0  0
    0.8819    6.7315   -1.1106 C   0  0  0  0  0  0
    7.5114   -3.1505    0.6801 C   0  0  0  0  0  0
    3.1748   -4.5600    0.2024 C   0  0  0  0  0  0
    1.4952    7.2735   -2.3972 C   0  0  0  0  0  0
   -4.6347    1.1259    0.3737 H   0  0  0  0  0  0
   -3.3902    1.0962   -0.8592 H   0  0  0  0  0  0
   -2.2179   -1.1716   -1.3373 H   0  0  0  0  0  0
   -2.7244   -2.5641   -0.4033 H   0  0  0  0  0  0
   -2.9839    0.6988    2.1521 H   0  0  0  0  0  0
   -2.5300    2.0992    1.2154 H   0  0  0  0  0  0
   -0.5850   -1.7098    0.4628 H   0  0  0  0  0  0
   -1.8281   -1.5945    1.6689 H   0  0  0  0  0  0
   -5.8164   -0.5050   -0.7993 H   0  0  0  0  0  0
   -4.6355   -0.9219   -2.0187 H   0  0  0  0  0  0
    0.5508   -0.1771   -1.5954 H   0  0  0  0  0  0
    2.0273    0.4953    2.4012 H   0  0  0  0  0  0
    0.6597    2.8283   -0.9849 H   0  0  0  0  0  0
   -0.5169    2.2957    3.1256 H   0  0  0  0  0  0
   -4.3571   -3.2530   -2.6501 H   0  0  0  0  0  0
   -6.5436   -2.2480    0.9379 H   0  0  0  0  0  0
    2.6422   -1.3659   -2.1709 H   0  0  0  0  0  0
    4.1219   -0.6866    1.8285 H   0  0  0  0  0  0
   -0.2232    4.7254    3.5247 H   0  0  0  0  0  0
   -5.0907   -5.6128   -2.4297 H   0  0  0  0  0  0
   -7.2710   -4.6111    1.1497 H   0  0  0  0  0  0
    0.5071    6.2110    1.7070 H   0  0  0  0  0  0
   -6.5457   -6.2961   -0.5308 H   0  0  0  0  0  0
    1.5080    4.9033   -1.6379 H   0  0  0  0  0  0
    6.2855   -4.7584   -0.0771 H   0  0  0  0  0  0
    6.6718   -3.5681   -1.2700 H   0  0  0  0  0  0
    4.8120   -4.4163    1.5929 H   0  0  0  0  0  0
    3.7338   -3.0808    1.6811 H   0  0  0  0  0  0
    8.4485   -3.6696    0.4783 H   0  0  0  0  0  0
    7.6813   -2.0858    0.5165 H   0  0  0  0  0  0
    7.2724   -3.2943    1.7342 H   0  0  0  0  0  0
    2.5516   -5.1302    0.8914 H   0  0  0  0  0  0
    2.5155   -3.9196   -0.3837 H   0  0  0  0  0  0
    3.6479   -5.2674   -0.4792 H   0  0  0  0  0  0
    1.3352    8.3491   -2.4798 H   0  0  0  0  0  0
    2.5693    7.0870   -2.4166 H   0  0  0  0  0  0
    1.0437    6.7943   -3.2663 H   0  0  0  0  0  0
   -3.8571   -0.7994   -0.0474 N   0  3  2  0  0  0
   -4.1555   -1.1398    0.8555 H   0  0  0  0  0  0
  1 30  2  0  0  0
  2 33  2  0  0  0
  3 30  1  0  0  0
  3 31  1  0  0  0
  3 32  1  0  0  0
  4 24  1  0  0  0
  4 33  1  0  0  0
  4 60  1  0  0  0
  5  7  1  0  0  0
  5 37  1  0  0  0
  5 38  1  0  0  0
  5 74  1  0  0  0
  6  8  1  0  0  0
  6 39  1  0  0  0
  6 40  1  0  0  0
  6 74  1  0  0  0
  7  9  1  0  0  0
  7 41  1  0  0  0
  7 42  1  0  0  0
  8  9  1  0  0  0
  8 43  1  0  0  0
  8 44  1  0  0  0
  9 11  2  0  0  0
 10 13  1  0  0  0
 10 45  1  0  0  0
 10 46  1  0  0  0
 10 74  1  0  0  0
 11 12  1  0  0  0
 11 14  1  0  0  0
 12 15  2  0  0  0
 12 16  1  0  0  0
 13 19  2  0  0  0
 13 20  1  0  0  0
 14 17  2  0  0  0
 14 18  1  0  0  0
 15 21  1  0  0  0
 15 47  1  0  0  0
 16 22  2  0  0  0
 16 48  1  0  0  0
 17 24  1  0  0  0
 17 49  1  0  0  0
 18 25  2  0  0  0
 18 50  1  0  0  0
 19 26  1  0  0  0
 19 51  1  0  0  0
 20 27  2  0  0  0
 20 52  1  0  0  0
 21 23  2  0  0  0
 21 53  1  0  0  0
 22 23  1  0  0  0
 22 54  1  0  0  0
 23 30  1  0  0  0
 24 28  2  0  0  0
 25 28  1  0  0  0
 25 55  1  0  0  0
 26 29  2  0  0  0
 26 56  1  0  0  0
 27 29  1  0  0  0
 27 57  1  0  0  0
 28 58  1  0  0  0
 29 59  1  0  0  0
 31 34  1  0  0  0
 31 61  1  0  0  0
 31 62  1  0  0  0
 32 35  1  0  0  0
 32 63  1  0  0  0
 32 64  1  0  0  0
 33 36  1  0  0  0
 34 65  1  0  0  0
 34 66  1  0  0  0
 34 67  1  0  0  0
 35 68  1  0  0  0
 35 69  1  0  0  0
 35 70  1  0  0  0
 36 71  1  0  0  0
 36 72  1  0  0  0
 36 73  1  0  0  0
 74 75  1  0  0  0
M  CHG  1  74   1
M  END
> <LID>
L023126

> <PC_CID>
44216041

> <Names>


> <CAS_Numbers>


$$$$
44216040
                    3D
 Structure written by MMmdl.
 72 75  0  0  1  0            999 V2000
   -5.3666    5.0614    0.7862 S   0  0  0  0  0  0
   -1.1754   -6.7108   -0.9853 S   0  0  0  0  0  0
    5.4090    0.0211   -1.5775 O   0  0  0  0  0  0
   -2.4647   -6.9925   -0.3361 O   0  0  0  0  0  0
   -0.9421   -7.0859   -2.3876 O   0  0  0  0  0  0
   -4.1258    5.4676   -1.4583 N   0  0  0  0  0  0
   -0.9446   -4.9901   -0.9209 N   0  0  0  0  0  0
    5.5051    1.8081   -0.1681 N   0  0  0  0  0  0
   -1.5921    0.5693    0.7487 C   0  0  0  0  0  0
   -3.0654    0.3067    1.0431 C   0  0  0  0  0  0
   -1.3256    2.0584    0.5553 C   0  0  0  0  0  0
   -3.9677    0.9497   -0.0242 C   0  0  0  0  0  0
   -2.2587    2.6565   -0.5091 C   0  0  0  0  0  0
   -0.6427   -0.3981    0.6601 C   0  0  0  0  0  0
   -4.6359    3.0487   -1.1246 C   0  0  0  0  0  0
    0.7528   -0.0850    0.3105 C   0  0  0  0  0  0
   -0.9464   -1.8167    0.9160 C   0  0  0  0  0  0
   -4.6503    4.4876   -0.7175 C   0  0  0  0  0  0
   -0.8156   -2.7653   -0.1207 C   0  0  0  0  0  0
    1.0888    0.3350   -0.9946 C   0  0  0  0  0  0
    1.7774   -0.2563    1.2647 C   0  0  0  0  0  0
   -1.3281   -2.2503    2.2035 C   0  0  0  0  0  0
   -1.0812   -4.1314    0.1091 C   0  0  0  0  0  0
    2.4279    0.6099   -1.3319 C   0  0  0  0  0  0
    3.1169    0.0184    0.9288 C   0  0  0  0  0  0
    3.4470    0.4714   -0.3666 C   0  0  0  0  0  0
   -1.5968   -3.6105    2.4426 C   0  0  0  0  0  0
   -1.4768   -4.5484    1.3999 C   0  0  0  0  0  0
    4.8723    0.7523   -0.7443 C   0  0  0  0  0  0
   -4.9067    6.6841    0.3503 C   0  0  0  0  0  0
   -4.2643    6.7230   -0.8610 C   0  0  0  0  0  0
    6.9057    2.1071   -0.5024 C   0  0  0  0  0  0
    4.8642    2.8064    0.7049 C   0  0  0  0  0  0
    7.0269    2.8846   -1.8225 C   0  0  0  0  0  0
    5.2172    2.6034    2.1873 C   0  0  0  0  0  0
    0.2017   -7.3596    0.0468 C   0  0  0  0  0  0
   -3.2967   -0.7556    1.0990 H   0  0  0  0  0  0
   -3.2975    0.7238    2.0238 H   0  0  0  0  0  0
   -1.5003    2.5558    1.5102 H   0  0  0  0  0  0
   -0.2901    2.2737    0.2978 H   0  0  0  0  0  0
   -3.8265    0.4469   -0.9825 H   0  0  0  0  0  0
   -5.0116    0.8057    0.2576 H   0  0  0  0  0  0
   -2.0698    3.7277   -0.5793 H   0  0  0  0  0  0
   -2.0258    2.2322   -1.4873 H   0  0  0  0  0  0
   -4.3261    2.9314   -2.1643 H   0  0  0  0  0  0
   -5.6454    2.6496   -1.0186 H   0  0  0  0  0  0
   -0.5095   -2.4361   -1.1035 H   0  0  0  0  0  0
    0.3171    0.4468   -1.7422 H   0  0  0  0  0  0
    1.5378   -0.6036    2.2593 H   0  0  0  0  0  0
   -1.4171   -1.5382    3.0111 H   0  0  0  0  0  0
    2.6693    0.9321   -2.3348 H   0  0  0  0  0  0
    3.8893   -0.1366    1.6667 H   0  0  0  0  0  0
   -1.8942   -3.9362    3.4285 H   0  0  0  0  0  0
   -1.6911   -5.5841    1.6128 H   0  0  0  0  0  0
   -0.6749   -4.5650   -1.7958 H   0  0  0  0  0  0
   -5.1383    7.5088    1.0083 H   0  0  0  0  0  0
   -3.8756    7.5933   -1.3694 H   0  0  0  0  0  0
    7.3680    2.6899    0.2947 H   0  0  0  0  0  0
    7.4881    1.1857   -0.5582 H   0  0  0  0  0  0
    5.1916    3.8008    0.3986 H   0  0  0  0  0  0
    3.7812    2.8255    0.5827 H   0  0  0  0  0  0
    8.0702    3.1133   -2.0405 H   0  0  0  0  0  0
    6.6337    2.3116   -2.6627 H   0  0  0  0  0  0
    6.4838    3.8289   -1.7777 H   0  0  0  0  0  0
    4.7300    3.3597    2.8028 H   0  0  0  0  0  0
    4.8984    1.6299    2.5544 H   0  0  0  0  0  0
    6.2900    2.6853    2.3609 H   0  0  0  0  0  0
    0.1062   -6.9983    1.0694 H   0  0  0  0  0  0
    0.1678   -8.4487    0.0459 H   0  0  0  0  0  0
    1.1532   -7.0282   -0.3681 H   0  0  0  0  0  0
   -3.6880    2.3992   -0.1834 N   0  3  1  0  0  0
   -3.8601    2.8165    0.7203 H   0  0  0  0  0  0
  1 18  1  0  0  0
  1 30  1  0  0  0
  2  4  2  0  0  0
  2  5  2  0  0  0
  2  7  1  0  0  0
  2 36  1  0  0  0
  3 29  2  0  0  0
  6 18  2  0  0  0
  6 31  1  0  0  0
  7 23  1  0  0  0
  7 55  1  0  0  0
  8 29  1  0  0  0
  8 32  1  0  0  0
  8 33  1  0  0  0
  9 10  1  0  0  0
  9 11  1  0  0  0
  9 14  2  0  0  0
 10 12  1  0  0  0
 10 37  1  0  0  0
 10 38  1  0  0  0
 11 13  1  0  0  0
 11 39  1  0  0  0
 11 40  1  0  0  0
 12 41  1  0  0  0
 12 42  1  0  0  0
 12 71  1  0  0  0
 13 43  1  0  0  0
 13 44  1  0  0  0
 13 71  1  0  0  0
 14 16  1  0  0  0
 14 17  1  0  0  0
 15 18  1  0  0  0
 15 45  1  0  0  0
 15 46  1  0  0  0
 15 71  1  0  0  0
 16 20  2  0  0  0
 16 21  1  0  0  0
 17 19  2  0  0  0
 17 22  1  0  0  0
 19 23  1  0  0  0
 19 47  1  0  0  0
 20 24  1  0  0  0
 20 48  1  0  0  0
 21 25  2  0  0  0
 21 49  1  0  0  0
 22 27  2  0  0  0
 22 50  1  0  0  0
 23 28  2  0  0  0
 24 26  2  0  0  0
 24 51  1  0  0  0
 25 26  1  0  0  0
 25 52  1  0  0  0
 26 29  1  0  0  0
 27 28  1  0  0  0
 27 53  1  0  0  0
 28 54  1  0  0  0
 30 31  2  0  0  0
 30 56  1  0  0  0
 31 57  1  0  0  0
 32 34  1  0  0  0
 32 58  1  0  0  0
 32 59  1  0  0  0
 33 35  1  0  0  0
 33 60  1  0  0  0
 33 61  1  0  0  0
 34 62  1  0  0  0
 34 63  1  0  0  0
 34 64  1  0  0  0
 35 65  1  0  0  0
 35 66  1  0  0  0
 35 67  1  0  0  0
 36 68  1  0  0  0
 36 69  1  0  0  0
 36 70  1  0  0  0
 71 72  1  0  0  0
M  CHG  1  71   1
M  END
> <LID>
L023125

> <PC_CID>
44216040

> <Names>


> <CAS_Numbers>


$$$$
44216043
                    3D
 Structure written by MMmdl.
 72 75  0  0  1  0            999 V2000
    5.1398   -6.5462   -0.7312 S   0  0  0  0  0  0
    1.2505    5.4066   -1.0942 O   0  0  0  0  0  0
   -7.1327    1.4439    0.4284 O   0  0  0  0  0  0
    2.9832    4.9583    0.3152 N   0  0  0  0  0  0
   -5.3084    0.6673   -0.7088 N   0  0  0  0  0  0
   -0.3566   -3.9515   -0.2612 C   0  0  0  0  0  0
    1.7369   -2.7226   -0.6888 C   0  0  0  0  0  0
   -0.7088   -3.0061    0.9002 C   0  0  0  0  0  0
    1.4329   -1.7590    0.4692 C   0  0  0  0  0  0
   -0.0684   -1.6357    0.7069 C   0  0  0  0  0  0
    1.4597   -5.0511   -1.5109 C   0  0  0  0  0  0
   -0.7473   -0.4594    0.7334 C   0  0  0  0  0  0
   -0.0778    0.8264    0.4761 C   0  0  0  0  0  0
   -2.1887   -0.3937    1.0319 C   0  0  0  0  0  0
    2.9080   -5.4404   -1.4506 C   0  0  0  0  0  0
    0.3890    1.1461   -0.8171 C   0  0  0  0  0  0
    0.0554    1.7752    1.5113 C   0  0  0  0  0  0
   -3.0902    0.0889    0.0593 C   0  0  0  0  0  0
   -2.6793   -0.7690    2.3007 C   0  0  0  0  0  0
    3.9105   -4.9491   -2.3430 C   0  0  0  0  0  0
    3.4243   -6.3171   -0.5292 C   0  0  0  0  0  0
    1.0096    2.3855   -1.0644 C   0  0  0  0  0  0
    0.6755    3.0152    1.2654 C   0  0  0  0  0  0
    1.1764    3.3186   -0.0197 C   0  0  0  0  0  0
   -4.4698    0.1901    0.3356 C   0  0  0  0  0  0
   -4.0557   -0.6892    2.5814 C   0  0  0  0  0  0
    5.1587   -5.4488   -2.0819 C   0  0  0  0  0  0
   -4.9512   -0.2182    1.6028 C   0  0  0  0  0  0
    1.8140    4.6480   -0.3044 C   0  0  0  0  0  0
    3.6032    6.2776    0.1240 C   0  0  0  0  0  0
    3.7818    4.0262    1.1285 C   0  0  0  0  0  0
    3.0609    7.3005    1.1320 C   0  0  0  0  0  0
    4.6122    3.0764    0.2526 C   0  0  0  0  0  0
   -6.5294    1.2260   -0.6212 C   0  0  0  0  0  0
   -7.1645    1.6277   -1.9481 C   0  0  0  0  0  0
   -0.7693   -4.9397   -0.0539 H   0  0  0  0  0  0
   -0.8270   -3.5996   -1.1809 H   0  0  0  0  0  0
    1.3758   -2.3009   -1.6283 H   0  0  0  0  0  0
    2.8180   -2.8236   -0.7831 H   0  0  0  0  0  0
   -0.3465   -3.4234    1.8405 H   0  0  0  0  0  0
   -1.7927   -2.9514    0.9859 H   0  0  0  0  0  0
    1.9132   -0.7999    0.2835 H   0  0  0  0  0  0
    1.8852   -2.1408    1.3854 H   0  0  0  0  0  0
    0.8476   -5.9441   -1.3761 H   0  0  0  0  0  0
    1.2021   -4.6556   -2.4947 H   0  0  0  0  0  0
    0.2707    0.4387   -1.6249 H   0  0  0  0  0  0
   -0.3202    1.5537    2.4998 H   0  0  0  0  0  0
   -2.7149    0.3891   -0.9087 H   0  0  0  0  0  0
   -1.9995   -1.1258    3.0608 H   0  0  0  0  0  0
    3.6852   -4.2511   -3.1361 H   0  0  0  0  0  0
    2.9049   -6.8455    0.2571 H   0  0  0  0  0  0
    1.3617    2.6155   -2.0598 H   0  0  0  0  0  0
    0.7639    3.7332    2.0681 H   0  0  0  0  0  0
   -4.4267   -0.9917    3.5495 H   0  0  0  0  0  0
    6.0843   -5.2419   -2.5992 H   0  0  0  0  0  0
   -6.0023   -0.1876    1.8445 H   0  0  0  0  0  0
   -4.9072    0.6355   -1.6344 H   0  0  0  0  0  0
    4.6868    6.2052    0.2273 H   0  0  0  0  0  0
    3.4441    6.6407   -0.8929 H   0  0  0  0  0  0
    4.4552    4.5872    1.7781 H   0  0  0  0  0  0
    3.1638    3.4538    1.8169 H   0  0  0  0  0  0
    3.5382    8.2707    0.9933 H   0  0  0  0  0  0
    1.9859    7.4411    1.0152 H   0  0  0  0  0  0
    3.2484    6.9817    2.1577 H   0  0  0  0  0  0
    5.2277    2.4218    0.8698 H   0  0  0  0  0  0
    3.9773    2.4427   -0.3666 H   0  0  0  0  0  0
    5.2787    3.6312   -0.4084 H   0  0  0  0  0  0
   -8.1589    2.0469   -1.7907 H   0  0  0  0  0  0
   -6.5543    2.3783   -2.4511 H   0  0  0  0  0  0
   -7.2604    0.7617   -2.6035 H   0  0  0  0  0  0
    1.1109   -4.0538   -0.4676 N   0  3  2  0  0  0
    1.4925   -4.4099    0.3972 H   0  0  0  0  0  0
  1 21  1  0  0  0
  1 27  1  0  0  0
  2 29  2  0  0  0
  3 34  2  0  0  0
  4 29  1  0  0  0
  4 30  1  0  0  0
  4 31  1  0  0  0
  5 25  1  0  0  0
  5 34  1  0  0  0
  5 57  1  0  0  0
  6  8  1  0  0  0
  6 36  1  0  0  0
  6 37  1  0  0  0
  6 71  1  0  0  0
  7  9  1  0  0  0
  7 38  1  0  0  0
  7 39  1  0  0  0
  7 71  1  0  0  0
  8 10  1  0  0  0
  8 40  1  0  0  0
  8 41  1  0  0  0
  9 10  1  0  0  0
  9 42  1  0  0  0
  9 43  1  0  0  0
 10 12  2  0  0  0
 11 15  1  0  0  0
 11 44  1  0  0  0
 11 45  1  0  0  0
 11 71  1  0  0  0
 12 13  1  0  0  0
 12 14  1  0  0  0
 13 16  2  0  0  0
 13 17  1  0  0  0
 14 18  2  0  0  0
 14 19  1  0  0  0
 15 20  1  0  0  0
 15 21  2  0  0  0
 16 22  1  0  0  0
 16 46  1  0  0  0
 17 23  2  0  0  0
 17 47  1  0  0  0
 18 25  1  0  0  0
 18 48  1  0  0  0
 19 26  2  0  0  0
 19 49  1  0  0  0
 20 27  2  0  0  0
 20 50  1  0  0  0
 21 51  1  0  0  0
 22 24  2  0  0  0
 22 52  1  0  0  0
 23 24  1  0  0  0
 23 53  1  0  0  0
 24 29  1  0  0  0
 25 28  2  0  0  0
 26 28  1  0  0  0
 26 54  1  0  0  0
 27 55  1  0  0  0
 28 56  1  0  0  0
 30 32  1  0  0  0
 30 58  1  0  0  0
 30 59  1  0  0  0
 31 33  1  0  0  0
 31 60  1  0  0  0
 31 61  1  0  0  0
 32 62  1  0  0  0
 32 63  1  0  0  0
 32 64  1  0  0  0
 33 65  1  0  0  0
 33 66  1  0  0  0
 33 67  1  0  0  0
 34 35  1  0  0  0
 35 68  1  0  0  0
 35 69  1  0  0  0
 35 70  1  0  0  0
 71 72  1  0  0  0
M  CHG  1  71   1
M  END
> <LID>
L023129

> <PC_CID>
44216043

> <Names>


> <CAS_Numbers>


$$$$
44216042
                    3D
 Structure written by MMmdl.
 72 75  0  0  1  0            999 V2000
   -4.6028   -5.1447    0.4007 O   0  0  0  0  0  0
    5.4409    0.5778   -1.6359 O   0  0  0  0  0  0
   -2.6677    6.8388   -0.3700 O   0  0  0  0  0  0
    5.7357   -1.1132   -0.1382 N   0  0  0  0  0  0
   -1.1751    5.2017   -0.9284 N   0  0  0  0  0  0
   -2.9149   -0.2391    1.2120 C   0  0  0  0  0  0
   -1.0667   -1.8710    0.7088 C   0  0  0  0  0  0
   -3.7920   -0.9580    0.1725 C   0  0  0  0  0  0
   -1.9768   -2.5496   -0.3272 C   0  0  0  0  0  0
   -1.4334   -0.4014    0.8879 C   0  0  0  0  0  0
   -4.3260   -3.1144   -0.8928 C   0  0  0  0  0  0
   -0.5567    0.6288    0.7650 C   0  0  0  0  0  0
    0.8492    0.4083    0.3877 C   0  0  0  0  0  0
   -0.9529    2.0264    1.0103 C   0  0  0  0  0  0
   -4.1846   -4.5963   -0.7748 C   0  0  0  0  0  0
    1.1847   -0.0073   -0.9189 C   0  0  0  0  0  0
    1.8800    0.6631    1.3161 C   0  0  0  0  0  0
   -0.9020    2.9694   -0.0384 C   0  0  0  0  0  0
   -1.3432    2.4485    2.2991 C   0  0  0  0  0  0
   -3.6956   -5.5669   -1.6050 C   0  0  0  0  0  0
    2.5316   -0.1963   -1.2827 C   0  0  0  0  0  0
    3.2276    0.4749    0.9537 C   0  0  0  0  0  0
    3.5600    0.0226   -0.3422 C   0  0  0  0  0  0
   -1.2658    4.3148    0.1788 C   0  0  0  0  0  0
   -1.6932    3.7915    2.5305 C   0  0  0  0  0  0
   -3.8226   -6.7963   -0.9014 C   0  0  0  0  0  0
   -1.6535    4.7244    1.4771 C   0  0  0  0  0  0
   -4.3777   -6.4836    0.3067 C   0  0  0  0  0  0
    4.9936   -0.1546   -0.7526 C   0  0  0  0  0  0
    7.1626   -1.2714   -0.4552 C   0  0  0  0  0  0
    5.2071   -2.1228    0.7942 C   0  0  0  0  0  0
    8.0331   -0.3582    0.4193 C   0  0  0  0  0  0
    4.5147   -3.2748    0.0510 C   0  0  0  0  0  0
   -1.8294    6.3596   -1.1320 C   0  0  0  0  0  0
   -1.4959    7.0837   -2.4320 C   0  0  0  0  0  0
   -3.0961   -0.6580    2.2026 H   0  0  0  0  0  0
   -3.2194    0.8051    1.2600 H   0  0  0  0  0  0
   -0.0240   -2.0173    0.4325 H   0  0  0  0  0  0
   -1.1866   -2.3647    1.6740 H   0  0  0  0  0  0
   -3.7068   -0.4578   -0.7937 H   0  0  0  0  0  0
   -4.8375   -0.8844    0.4750 H   0  0  0  0  0  0
   -1.7190   -3.6075   -0.3819 H   0  0  0  0  0  0
   -1.7918   -2.1284   -1.3168 H   0  0  0  0  0  0
   -5.3588   -2.8485   -0.6638 H   0  0  0  0  0  0
   -4.1469   -2.7983   -1.9216 H   0  0  0  0  0  0
    0.4063   -0.1818   -1.6473 H   0  0  0  0  0  0
    1.6387    1.0059    2.3119 H   0  0  0  0  0  0
   -0.5878    2.6520   -1.0224 H   0  0  0  0  0  0
   -1.3702    1.7417    3.1157 H   0  0  0  0  0  0
   -3.2946   -5.4119   -2.5960 H   0  0  0  0  0  0
    2.7724   -0.5146   -2.2869 H   0  0  0  0  0  0
    4.0054    0.6806    1.6751 H   0  0  0  0  0  0
   -1.9856    4.1095    3.5204 H   0  0  0  0  0  0
   -3.5428   -7.7845   -1.2361 H   0  0  0  0  0  0
   -1.9071    5.7511    1.6918 H   0  0  0  0  0  0
   -4.6639   -7.0622    1.1729 H   0  0  0  0  0  0
   -0.5859    4.8903   -1.6866 H   0  0  0  0  0  0
    7.4690   -2.3089   -0.3142 H   0  0  0  0  0  0
    7.3541   -1.0653   -1.5097 H   0  0  0  0  0  0
    6.0201   -2.5295    1.3973 H   0  0  0  0  0  0
    4.5271   -1.6875    1.5233 H   0  0  0  0  0  0
    9.0898   -0.4944    0.1888 H   0  0  0  0  0  0
    7.7922    0.6930    0.2578 H   0  0  0  0  0  0
    7.8935   -0.5756    1.4786 H   0  0  0  0  0  0
    4.1660   -4.0323    0.7531 H   0  0  0  0  0  0
    3.6493   -2.9265   -0.5129 H   0  0  0  0  0  0
    5.1970   -3.7598   -0.6476 H   0  0  0  0  0  0
   -2.0449    8.0232   -2.5041 H   0  0  0  0  0  0
   -0.4301    7.3080   -2.4818 H   0  0  0  0  0  0
   -1.7616    6.4670   -3.2909 H   0  0  0  0  0  0
   -3.4131   -2.3861    0.0222 N   0  3  2  0  0  0
   -3.5381   -2.8085    0.9314 H   0  0  0  0  0  0
  1 15  1  0  0  0
  1 28  1  0  0  0
  2 29  2  0  0  0
  3 34  2  0  0  0
  4 29  1  0  0  0
  4 30  1  0  0  0
  4 31  1  0  0  0
  5 24  1  0  0  0
  5 34  1  0  0  0
  5 57  1  0  0  0
  6  8  1  0  0  0
  6 10  1  0  0  0
  6 36  1  0  0  0
  6 37  1  0  0  0
  7  9  1  0  0  0
  7 10  1  0  0  0
  7 38  1  0  0  0
  7 39  1  0  0  0
  8 40  1  0  0  0
  8 41  1  0  0  0
  8 71  1  0  0  0
  9 42  1  0  0  0
  9 43  1  0  0  0
  9 71  1  0  0  0
 10 12  2  0  0  0
 11 15  1  0  0  0
 11 44  1  0  0  0
 11 45  1  0  0  0
 11 71  1  0  0  0
 12 13  1  0  0  0
 12 14  1  0  0  0
 13 16  2  0  0  0
 13 17  1  0  0  0
 14 18  2  0  0  0
 14 19  1  0  0  0
 15 20  2  0  0  0
 16 21  1  0  0  0
 16 46  1  0  0  0
 17 22  2  0  0  0
 17 47  1  0  0  0
 18 24  1  0  0  0
 18 48  1  0  0  0
 19 25  2  0  0  0
 19 49  1  0  0  0
 20 26  1  0  0  0
 20 50  1  0  0  0
 21 23  2  0  0  0
 21 51  1  0  0  0
 22 23  1  0  0  0
 22 52  1  0  0  0
 23 29  1  0  0  0
 24 27  2  0  0  0
 25 27  1  0  0  0
 25 53  1  0  0  0
 26 28  2  0  0  0
 26 54  1  0  0  0
 27 55  1  0  0  0
 28 56  1  0  0  0
 30 32  1  0  0  0
 30 58  1  0  0  0
 30 59  1  0  0  0
 31 33  1  0  0  0
 31 60  1  0  0  0
 31 61  1  0  0  0
 32 62  1  0  0  0
 32 63  1  0  0  0
 32 64  1  0  0  0
 33 65  1  0  0  0
 33 66  1  0  0  0
 33 67  1  0  0  0
 34 35  1  0  0  0
 35 68  1  0  0  0
 35 69  1  0  0  0
 35 70  1  0  0  0
 71 72  1  0  0  0
M  CHG  1  71   1
M  END
> <LID>
L023128

> <PC_CID>
44216042

> <Names>


> <CAS_Numbers>


$$$$
9849775
                    3D
 Structure written by MMmdl.
 74 79  0  0  1  0            999 V2000
    1.7788    1.0978   -1.7204 O   0  0  0  0  0  0
   -6.2324    1.4431   -1.1005 O   0  0  0  0  0  0
   -5.0108   -0.5760    2.1609 O   0  0  0  0  0  0
    5.4920    2.6885    2.1518 O   0  0  0  0  0  0
    2.9061   -2.1052   -0.6759 N   0  0  0  0  0  0
    3.6770   -0.1588   -1.6979 N   0  0  0  0  0  0
   -4.8705   -0.2084   -0.0851 N   0  0  0  0  0  0
    1.7779   -1.1522   -0.7485 C   0  0  0  0  0  0
    1.2820   -0.7271    0.6650 C   0  0  0  0  0  0
    0.6022   -1.6995   -1.6107 C   0  0  0  0  0  0
   -0.0295    0.0827    0.6468 C   0  0  0  0  0  0
   -0.6804   -0.8481   -1.5283 C   0  0  0  0  0  0
    2.3916    0.0657   -1.4474 C   0  0  0  0  0  0
    4.0899   -1.4810   -1.2801 C   0  0  0  0  0  0
   -2.4079    0.0561    0.0041 C   0  0  0  0  0  0
    2.9466   -3.3723   -0.1551 C   0  0  0  0  0  0
    4.6208    0.7705   -2.3164 C   0  0  0  0  0  0
   -3.5885   -0.8979   -0.2621 C   0  0  0  0  0  0
    4.1507   -4.1256   -0.2032 C   0  0  0  0  0  0
    1.8216   -3.9944    0.4478 C   0  0  0  0  0  0
    5.0358    1.9388   -1.4293 C   0  0  0  0  0  0
    4.2272   -5.4296    0.3225 C   0  0  0  0  0  0
    1.8948   -5.2983    0.9745 C   0  0  0  0  0  0
    5.0887    1.8168   -0.0220 C   0  0  0  0  0  0
    5.3935    3.1637   -2.0276 C   0  0  0  0  0  0
   -5.5796    0.2193   -1.2855 C   0  0  0  0  0  0
    3.0982   -6.0195    0.9133 C   0  0  0  0  0  0
   -5.4665   -0.0897    1.1249 C   0  0  0  0  0  0
    5.4774    2.9017    0.7900 C   0  0  0  0  0  0
    5.7847    4.2544   -1.2297 C   0  0  0  0  0  0
   -6.7237    0.7301    1.1454 C   0  0  0  0  0  0
   -7.0408    1.5035    0.0080 C   0  0  0  0  0  0
    5.8258    4.1284    0.1718 C   0  0  0  0  0  0
   -7.5541    0.7856    2.2863 C   0  0  0  0  0  0
   -8.1689    2.3466    0.0179 C   0  0  0  0  0  0
   -8.6926    1.6158    2.2869 C   0  0  0  0  0  0
   -8.9974    2.3986    1.1559 C   0  0  0  0  0  0
    5.8832    3.7641    2.9925 C   0  0  0  0  0  0
    2.0529   -0.1398    1.1675 H   0  0  0  0  0  0
    1.1319   -1.5832    1.3161 H   0  0  0  0  0  0
    0.3396   -2.7173   -1.3377 H   0  0  0  0  0  0
    0.9114   -1.7730   -2.6549 H   0  0  0  0  0  0
   -0.3563    0.2303    1.6770 H   0  0  0  0  0  0
    0.1247    1.0794    0.2326 H   0  0  0  0  0  0
   -0.5509    0.1096   -2.0326 H   0  0  0  0  0  0
   -1.4686   -1.3673   -2.0719 H   0  0  0  0  0  0
    4.4322   -2.0500   -2.1460 H   0  0  0  0  0  0
    4.9043   -1.4028   -0.5580 H   0  0  0  0  0  0
   -2.5141    0.4501    1.0161 H   0  0  0  0  0  0
   -2.4460    0.9180   -0.6642 H   0  0  0  0  0  0
    5.5217    0.2304   -2.6098 H   0  0  0  0  0  0
    4.1809    1.1532   -3.2388 H   0  0  0  0  0  0
   -3.5395   -1.3089   -1.2702 H   0  0  0  0  0  0
   -3.5297   -1.7607    0.4040 H   0  0  0  0  0  0
    5.0506   -3.7262   -0.6448 H   0  0  0  0  0  0
    0.8688   -3.5018    0.5293 H   0  0  0  0  0  0
    5.1566   -5.9776    0.2713 H   0  0  0  0  0  0
    1.0226   -5.7461    1.4276 H   0  0  0  0  0  0
    4.8294    0.8827    0.4538 H   0  0  0  0  0  0
    5.3667    3.2724   -3.1021 H   0  0  0  0  0  0
   -4.8642    0.3408   -2.0997 H   0  0  0  0  0  0
   -6.2987   -0.5564   -1.5557 H   0  0  0  0  0  0
    3.1550   -7.0197    1.3172 H   0  0  0  0  0  0
    6.0544    5.1915   -1.6941 H   0  0  0  0  0  0
    6.1302    4.9873    0.7502 H   0  0  0  0  0  0
   -7.3207    0.2032    3.1660 H   0  0  0  0  0  0
   -8.4041    2.9459   -0.8494 H   0  0  0  0  0  0
   -9.3276    1.6590    3.1596 H   0  0  0  0  0  0
   -9.8667    3.0395    1.1616 H   0  0  0  0  0  0
    5.8447    3.4401    4.0324 H   0  0  0  0  0  0
    6.9058    4.0817    2.7842 H   0  0  0  0  0  0
    5.2110    4.6168    2.8881 H   0  0  0  0  0  0
   -1.0911   -0.6200   -0.1179 N   0  3  0  0  0  0
   -1.1960   -1.5269    0.3144 H   0  0  0  0  0  0
  1 13  2  0  0  0
  2 26  1  0  0  0
  2 32  1  0  0  0
  3 28  2  0  0  0
  4 29  1  0  0  0
  4 38  1  0  0  0
  5  8  1  0  0  0
  5 14  1  0  0  0
  5 16  1  0  0  0
  6 13  1  0  0  0
  6 14  1  0  0  0
  6 17  1  0  0  0
  7 18  1  0  0  0
  7 26  1  0  0  0
  7 28  1  0  0  0
  8  9  1  0  0  0
  8 10  1  0  0  0
  8 13  1  0  0  0
  9 11  1  0  0  0
  9 39  1  0  0  0
  9 40  1  0  0  0
 10 12  1  0  0  0
 10 41  1  0  0  0
 10 42  1  0  0  0
 11 43  1  0  0  0
 11 44  1  0  0  0
 11 73  1  0  0  0
 12 45  1  0  0  0
 12 46  1  0  0  0
 12 73  1  0  0  0
 14 47  1  0  0  0
 14 48  1  0  0  0
 15 18  1  0  0  0
 15 49  1  0  0  0
 15 50  1  0  0  0
 15 73  1  0  0  0
 16 19  2  0  0  0
 16 20  1  0  0  0
 17 21  1  0  0  0
 17 51  1  0  0  0
 17 52  1  0  0  0
 18 53  1  0  0  0
 18 54  1  0  0  0
 19 22  1  0  0  0
 19 55  1  0  0  0
 20 23  2  0  0  0
 20 56  1  0  0  0
 21 24  2  0  0  0
 21 25  1  0  0  0
 22 27  2  0  0  0
 22 57  1  0  0  0
 23 27  1  0  0  0
 23 58  1  0  0  0
 24 29  1  0  0  0
 24 59  1  0  0  0
 25 30  2  0  0  0
 25 60  1  0  0  0
 26 61  1  0  0  0
 26 62  1  0  0  0
 27 63  1  0  0  0
 28 31  1  0  0  0
 29 33  2  0  0  0
 30 33  1  0  0  0
 30 64  1  0  0  0
 31 32  1  0  0  0
 31 34  2  0  0  0
 32 35  2  0  0  0
 33 65  1  0  0  0
 34 36  1  0  0  0
 34 66  1  0  0  0
 35 37  1  0  0  0
 35 67  1  0  0  0
 36 37  2  0  0  0
 36 68  1  0  0  0
 37 69  1  0  0  0
 38 70  1  0  0  0
 38 71  1  0  0  0
 38 72  1  0  0  0
 73 74  1  0  0  0
M  CHG  1  73   1
M  END
> <LID>
L020672

> <PC_CID>
9849775

> <Names>


> <CAS_Numbers>


$$$$
10052325
                    3D
 Structure written by MMmdl.
 72 75  0  0  1  0            999 V2000
    6.9817   -5.0460    0.5165 S   0  0  0  0  0  0
   -5.9670    0.5954   -1.4706 O   0  0  0  0  0  0
    3.0793    5.6106   -0.7053 O   0  0  0  0  0  0
    1.8022    6.4384   -2.3995 O   0  0  0  0  0  0
    5.9717   -3.4048   -1.2355 N   0  0  0  0  0  0
   -6.2898   -1.1357   -0.0257 N   0  0  0  0  0  0
    1.0446    4.6877   -1.0748 N   0  0  0  0  0  0
    0.4506   -2.3671    0.5501 C   0  0  0  0  0  0
    2.4350   -0.8806    0.9745 C   0  0  0  0  0  0
    0.9330   -0.9302    0.7161 C   0  0  0  0  0  0
    1.2606   -3.1024   -0.5292 C   0  0  0  0  0  0
    3.2109   -1.6554   -0.1048 C   0  0  0  0  0  0
    0.1313    0.1632    0.6341 C   0  0  0  0  0  0
    3.5024   -3.8585   -1.2150 C   0  0  0  0  0  0
   -1.3026    0.0516    0.3192 C   0  0  0  0  0  0
    0.6435    1.5254    0.8617 C   0  0  0  0  0  0
    4.8924   -4.1297   -0.7186 C   0  0  0  0  0  0
   -1.7262   -0.3321   -0.9715 C   0  0  0  0  0  0
   -2.2691    0.3824    1.2918 C   0  0  0  0  0  0
    0.6310    2.4690   -0.1877 C   0  0  0  0  0  0
    1.1080    1.9162    2.1361 C   0  0  0  0  0  0
    5.2619   -5.0549    0.2287 C   0  0  0  0  0  0
   -3.0985   -0.4144   -1.2759 C   0  0  0  0  0  0
   -3.6417    0.3006    0.9889 C   0  0  0  0  0  0
   -4.0641   -0.1168   -0.2916 C   0  0  0  0  0  0
    1.1100    3.7793    0.0156 C   0  0  0  0  0  0
    1.5656    3.2292    2.3540 C   0  0  0  0  0  0
    1.5624    4.1617    1.2998 C   0  0  0  0  0  0
   -5.5234   -0.1928   -0.6346 C   0  0  0  0  0  0
    7.1284   -3.7735   -0.6835 C   0  0  0  0  0  0
   -7.7263   -1.2325   -0.3260 C   0  0  0  0  0  0
   -5.7813   -2.2032    0.8525 C   0  0  0  0  0  0
   -7.9893   -2.0044   -1.6285 C   0  0  0  0  0  0
   -6.0684   -1.9289    2.3376 C   0  0  0  0  0  0
    1.9669    5.6572   -1.4630 C   0  0  0  0  0  0
    4.1420    6.5131   -0.9596 C   0  0  0  0  0  0
   -0.6115   -2.4338    0.3212 H   0  0  0  0  0  0
    0.5774   -2.8745    1.5073 H   0  0  0  0  0  0
    2.6279   -1.3187    1.9545 H   0  0  0  0  0  0
    2.8181    0.1378    1.0134 H   0  0  0  0  0  0
    1.0637   -2.6612   -1.5078 H   0  0  0  0  0  0
    0.9302   -4.1407   -0.5776 H   0  0  0  0  0  0
    3.1228   -1.1421   -1.0638 H   0  0  0  0  0  0
    4.2689   -1.6514    0.1572 H   0  0  0  0  0  0
    2.9978   -4.8109   -1.3832 H   0  0  0  0  0  0
    3.5212   -3.3526   -2.1818 H   0  0  0  0  0  0
   -0.9963   -0.5642   -1.7334 H   0  0  0  0  0  0
   -1.9586    0.7045    2.2752 H   0  0  0  0  0  0
    0.2591    2.1796   -1.1602 H   0  0  0  0  0  0
    1.1071    1.2091    2.9530 H   0  0  0  0  0  0
    4.6312   -5.7413    0.7744 H   0  0  0  0  0  0
   -3.4073   -0.7110   -2.2681 H   0  0  0  0  0  0
   -4.3661    0.5761    1.7402 H   0  0  0  0  0  0
    1.9112    3.5245    3.3338 H   0  0  0  0  0  0
    1.8954    5.1709    1.4922 H   0  0  0  0  0  0
    8.0553   -3.3041   -0.9787 H   0  0  0  0  0  0
    0.2630    4.5832   -1.7051 H   0  0  0  0  0  0
   -8.2502   -1.7292    0.4910 H   0  0  0  0  0  0
   -8.1695   -0.2370   -0.3872 H   0  0  0  0  0  0
   -6.2560   -3.1440    0.5707 H   0  0  0  0  0  0
   -4.7154   -2.3813    0.7095 H   0  0  0  0  0  0
   -9.0594   -2.0819   -1.8210 H   0  0  0  0  0  0
   -7.5362   -1.5081   -2.4871 H   0  0  0  0  0  0
   -7.5885   -3.0170   -1.5771 H   0  0  0  0  0  0
   -5.6819   -2.7384    2.9571 H   0  0  0  0  0  0
   -5.6044   -1.0063    2.6806 H   0  0  0  0  0  0
   -7.1377   -1.8521    2.5339 H   0  0  0  0  0  0
    4.9543    6.3366   -0.2546 H   0  0  0  0  0  0
    4.5323    6.3799   -1.9693 H   0  0  0  0  0  0
    3.8107    7.5460   -0.8458 H   0  0  0  0  0  0
    2.7179   -3.0521   -0.2461 N   0  3  2  0  0  0
    2.8454   -3.4936    0.6533 H   0  0  0  0  0  0
  1 22  1  0  0  0
  1 30  1  0  0  0
  2 29  2  0  0  0
  3 35  1  0  0  0
  3 36  1  0  0  0
  4 35  2  0  0  0
  5 17  1  0  0  0
  5 30  2  0  0  0
  6 29  1  0  0  0
  6 31  1  0  0  0
  6 32  1  0  0  0
  7 26  1  0  0  0
  7 35  1  0  0  0
  7 57  1  0  0  0
  8 10  1  0  0  0
  8 11  1  0  0  0
  8 37  1  0  0  0
  8 38  1  0  0  0
  9 10  1  0  0  0
  9 12  1  0  0  0
  9 39  1  0  0  0
  9 40  1  0  0  0
 10 13  2  0  0  0
 11 41  1  0  0  0
 11 42  1  0  0  0
 11 71  1  0  0  0
 12 43  1  0  0  0
 12 44  1  0  0  0
 12 71  1  0  0  0
 13 15  1  0  0  0
 13 16  1  0  0  0
 14 17  1  0  0  0
 14 45  1  0  0  0
 14 46  1  0  0  0
 14 71  1  0  0  0
 15 18  2  0  0  0
 15 19  1  0  0  0
 16 20  2  0  0  0
 16 21  1  0  0  0
 17 22  2  0  0  0
 18 23  1  0  0  0
 18 47  1  0  0  0
 19 24  2  0  0  0
 19 48  1  0  0  0
 20 26  1  0  0  0
 20 49  1  0  0  0
 21 27  2  0  0  0
 21 50  1  0  0  0
 22 51  1  0  0  0
 23 25  2  0  0  0
 23 52  1  0  0  0
 24 25  1  0  0  0
 24 53  1  0  0  0
 25 29  1  0  0  0
 26 28  2  0  0  0
 27 28  1  0  0  0
 27 54  1  0  0  0
 28 55  1  0  0  0
 30 56  1  0  0  0
 31 33  1  0  0  0
 31 58  1  0  0  0
 31 59  1  0  0  0
 32 34  1  0  0  0
 32 60  1  0  0  0
 32 61  1  0  0  0
 33 62  1  0  0  0
 33 63  1  0  0  0
 33 64  1  0  0  0
 34 65  1  0  0  0
 34 66  1  0  0  0
 34 67  1  0  0  0
 36 68  1  0  0  0
 36 69  1  0  0  0
 36 70  1  0  0  0
 71 72  1  0  0  0
M  CHG  1  71   1
M  END
> <LID>
L023138

> <PC_CID>
10052325

> <Names>


> <CAS_Numbers>


$$$$
10183838
                    3D
 Structure written by MMmdl.
 62 66  0  0  1  0            999 V2000
    4.3774   -1.6060   -0.6170 S   0  0  0  0  0  0
    5.3292   -1.6508    0.5031 O   0  0  0  0  0  0
    4.5968   -2.3980   -1.8366 O   0  0  0  0  0  0
    2.7647   -1.9134   -0.0342 N   0  0  0  0  0  0
   -1.9927   -1.7036    0.0853 N   0  0  0  0  0  0
   -0.6832   -2.2089    1.8174 N   0  0  0  0  0  0
    4.2342    0.0464   -1.1497 N   0  0  0  0  0  0
    0.1887   -0.3791    0.3228 C   0  0  0  0  0  0
    1.3892   -0.2915    1.3136 C   0  0  0  0  0  0
    0.8281   -0.7549   -1.0455 C   0  0  0  0  0  0
    2.3600   -1.4976    1.3208 C   0  0  0  0  0  0
    1.6552   -2.0485   -0.9906 C   0  0  0  0  0  0
   -0.8355   -1.4313    0.7448 C   0  0  0  0  0  0
   -0.4785    1.0127    0.3318 C   0  0  0  0  0  0
   -0.4281    1.8954   -0.7770 C   0  0  0  0  0  0
   -1.1499    1.4449    1.5014 C   0  0  0  0  0  0
   -2.5391   -1.1230   -1.1379 C   0  0  0  0  0  0
   -2.5961   -2.7472    0.7811 C   0  0  0  0  0  0
   -1.7910   -3.0406    1.8494 C   0  0  0  0  0  0
   -1.0373    3.1636   -0.7158 C   0  0  0  0  0  0
   -1.7568    2.7135    1.5637 C   0  0  0  0  0  0
   -4.0090   -0.7668   -0.9954 C   0  0  0  0  0  0
   -1.7020    3.5743    0.4533 C   0  0  0  0  0  0
    4.0929    1.1888   -0.4487 C   0  0  0  0  0  0
   -5.0027   -1.6080   -1.5399 C   0  0  0  0  0  0
   -4.3874    0.4126   -0.3203 C   0  0  0  0  0  0
    3.4022    2.2577   -1.0585 C   0  0  0  0  0  0
    4.6012    1.3561    0.8602 C   0  0  0  0  0  0
   -6.3644   -1.2740   -1.4048 C   0  0  0  0  0  0
   -5.7488    0.7466   -0.1857 C   0  0  0  0  0  0
   -6.7378   -0.0971   -0.7274 C   0  0  0  0  0  0
    3.1972    3.4664   -0.3660 C   0  0  0  0  0  0
    4.3997    2.5668    1.5515 C   0  0  0  0  0  0
    3.6944    3.6208    0.9413 C   0  0  0  0  0  0
    1.9654    0.5967    1.0661 H   0  0  0  0  0  0
    1.0375   -0.1174    2.3310 H   0  0  0  0  0  0
    1.4987    0.0367   -1.3748 H   0  0  0  0  0  0
    0.0790   -0.8493   -1.8287 H   0  0  0  0  0  0
    3.2402   -1.2569    1.9161 H   0  0  0  0  0  0
    1.9031   -2.3548    1.8128 H   0  0  0  0  0  0
    1.0313   -2.8921   -0.6939 H   0  0  0  0  0  0
    2.0430   -2.2883   -1.9803 H   0  0  0  0  0  0
    0.0668    1.6256   -1.6961 H   0  0  0  0  0  0
   -1.2034    0.7994    2.3661 H   0  0  0  0  0  0
   -2.0028   -0.2225   -1.4194 H   0  0  0  0  0  0
   -2.4004   -1.8386   -1.9490 H   0  0  0  0  0  0
   -3.5328   -3.1843    0.4679 H   0  0  0  0  0  0
   -1.9163   -3.7828    2.6239 H   0  0  0  0  0  0
    3.9926    0.1346   -2.1254 H   0  0  0  0  0  0
   -0.9933    3.8235   -1.5697 H   0  0  0  0  0  0
   -2.2654    3.0249    2.4641 H   0  0  0  0  0  0
   -2.1682    4.5476    0.4985 H   0  0  0  0  0  0
   -4.7242   -2.5132   -2.0595 H   0  0  0  0  0  0
   -3.6341    1.0639    0.0959 H   0  0  0  0  0  0
    3.0089    2.1510   -2.0591 H   0  0  0  0  0  0
    5.1466    0.5714    1.3577 H   0  0  0  0  0  0
   -7.1227   -1.9209   -1.8208 H   0  0  0  0  0  0
   -6.0339    1.6501    0.3330 H   0  0  0  0  0  0
   -7.7820    0.1588   -0.6240 H   0  0  0  0  0  0
    2.6567    4.2740   -0.8374 H   0  0  0  0  0  0
    4.7862    2.6856    2.5529 H   0  0  0  0  0  0
    3.5378    4.5473    1.4739 H   0  0  0  0  0  0
  1  2  2  0  0  0
  1  3  2  0  0  0
  1  4  1  0  0  0
  1  7  1  0  0  0
  4 11  1  0  0  0
  4 12  1  0  0  0
  5 13  1  0  0  0
  5 17  1  0  0  0
  5 18  1  0  0  0
  6 13  2  0  0  0
  6 19  1  0  0  0
  7 24  1  0  0  0
  7 49  1  0  0  0
  8  9  1  0  0  0
  8 10  1  0  0  0
  8 13  1  0  0  0
  8 14  1  0  0  0
  9 11  1  0  0  0
  9 35  1  0  0  0
  9 36  1  0  0  0
 10 12  1  0  0  0
 10 37  1  0  0  0
 10 38  1  0  0  0
 11 39  1  0  0  0
 11 40  1  0  0  0
 12 41  1  0  0  0
 12 42  1  0  0  0
 14 15  2  0  0  0
 14 16  1  0  0  0
 15 20  1  0  0  0
 15 43  1  0  0  0
 16 21  2  0  0  0
 16 44  1  0  0  0
 17 22  1  0  0  0
 17 45  1  0  0  0
 17 46  1  0  0  0
 18 19  2  0  0  0
 18 47  1  0  0  0
 19 48  1  0  0  0
 20 23  2  0  0  0
 20 50  1  0  0  0
 21 23  1  0  0  0
 21 51  1  0  0  0
 22 25  2  0  0  0
 22 26  1  0  0  0
 23 52  1  0  0  0
 24 27  2  0  0  0
 24 28  1  0  0  0
 25 29  1  0  0  0
 25 53  1  0  0  0
 26 30  2  0  0  0
 26 54  1  0  0  0
 27 32  1  0  0  0
 27 55  1  0  0  0
 28 33  2  0  0  0
 28 56  1  0  0  0
 29 31  2  0  0  0
 29 57  1  0  0  0
 30 31  1  0  0  0
 30 58  1  0  0  0
 31 59  1  0  0  0
 32 34  2  0  0  0
 32 60  1  0  0  0
 33 34  1  0  0  0
 33 61  1  0  0  0
 34 62  1  0  0  0
M  END
> <LID>
L022160

> <PC_CID>
10183838

> <Names>


> <CAS_Numbers>


$$$$
21184570
                    3D
 Structure written by MMmdl.
 56 58  0  0  1  0            999 V2000
   -4.8275   -1.4449   -1.7963 O   0  0  0  0  0  0
    4.3251    3.2713   -1.0561 O   0  0  0  0  0  0
   -5.0262    0.2197   -0.2706 N   0  0  0  0  0  0
   -6.8914    1.4318    0.6006 C   0  0  0  0  0  0
   -5.7626    1.4717    1.6204 C   0  0  0  0  0  0
   -6.4836    0.3108   -0.3558 C   0  0  0  0  0  0
   -4.5284    1.0680    0.8148 C   0  0  0  0  0  0
   -4.3050   -0.6445   -1.0201 C   0  0  0  0  0  0
   -2.8091   -0.6386   -0.8736 C   0  0  0  0  0  0
   -2.1289   -1.8447   -0.6070 C   0  0  0  0  0  0
   -2.0601    0.5431   -1.0625 C   0  0  0  0  0  0
    0.0294   -0.6780   -0.6569 C   0  0  0  0  0  0
    1.5057   -0.6824   -0.5506 C   0  0  0  0  0  0
   -0.7253   -1.8631   -0.4942 C   0  0  0  0  0  0
   -0.6569    0.5227   -0.9485 C   0  0  0  0  0  0
    2.1722    0.4894    0.0426 C   0  0  0  0  0  0
    2.2219   -1.7497   -0.9692 C   0  0  0  0  0  0
    3.7315   -1.9275   -0.8924 C   0  0  0  0  0  0
    2.9500    1.3562   -0.7549 C   0  0  0  0  0  0
    2.0052    0.7757    1.4125 C   0  0  0  0  0  0
    3.5796    2.4892   -0.2005 C   0  0  0  0  0  0
    2.6269    1.9028    1.9801 C   0  0  0  0  0  0
    5.4964   -3.4733   -0.1651 C   0  0  0  0  0  0
    3.7909   -2.7495    1.4397 C   0  0  0  0  0  0
    3.4125    2.7557    1.1816 C   0  0  0  0  0  0
    4.9632    4.4231   -0.5242 C   0  0  0  0  0  0
   -7.8683    1.2657    1.0555 H   0  0  0  0  0  0
   -6.9301    2.3789    0.0608 H   0  0  0  0  0  0
   -5.6568    2.4462    2.0981 H   0  0  0  0  0  0
   -5.9491    0.7338    2.4019 H   0  0  0  0  0  0
   -6.9204   -0.6374   -0.0379 H   0  0  0  0  0  0
   -6.8187    0.5133   -1.3741 H   0  0  0  0  0  0
   -3.7976    0.5573    1.4437 H   0  0  0  0  0  0
   -4.0573    1.9557    0.3921 H   0  0  0  0  0  0
   -2.6831   -2.7637   -0.4795 H   0  0  0  0  0  0
   -2.5548    1.4720   -1.3059 H   0  0  0  0  0  0
   -0.2373   -2.7999   -0.2699 H   0  0  0  0  0  0
   -0.1091    1.4416   -1.0985 H   0  0  0  0  0  0
    1.7037   -2.5906   -1.4065 H   0  0  0  0  0  0
    4.0809   -2.1479   -1.9019 H   0  0  0  0  0  0
    4.2461   -1.0205   -0.5767 H   0  0  0  0  0  0
    3.0682    1.1496   -1.8088 H   0  0  0  0  0  0
    1.4009    0.1290    2.0320 H   0  0  0  0  0  0
    2.4994    2.1156    3.0314 H   0  0  0  0  0  0
    5.7212   -4.3340    0.4658 H   0  0  0  0  0  0
    5.6798   -3.7665   -1.1994 H   0  0  0  0  0  0
    6.1901   -2.6712    0.0912 H   0  0  0  0  0  0
    4.0460   -3.6020    2.0700 H   0  0  0  0  0  0
    4.3568   -1.8854    1.7909 H   0  0  0  0  0  0
    2.7305   -2.5432    1.5866 H   0  0  0  0  0  0
    3.8733    3.6105    1.6526 H   0  0  0  0  0  0
    5.5062    4.9331   -1.3197 H   0  0  0  0  0  0
    4.2379    5.1283   -0.1160 H   0  0  0  0  0  0
    5.6849    4.1578    0.2496 H   0  0  0  0  0  0
    4.0936   -3.0404    0.0184 N   0  3  0  0  0  0
    3.5195   -3.8285   -0.2464 H   0  0  0  0  0  0
  1  8  2  0  0  0
  2 21  1  0  0  0
  2 26  1  0  0  0
  3  6  1  0  0  0
  3  7  1  0  0  0
  3  8  1  0  0  0
  4  5  1  0  0  0
  4  6  1  0  0  0
  4 27  1  0  0  0
  4 28  1  0  0  0
  5  7  1  0  0  0
  5 29  1  0  0  0
  5 30  1  0  0  0
  6 31  1  0  0  0
  6 32  1  0  0  0
  7 33  1  0  0  0
  7 34  1  0  0  0
  8  9  1  0  0  0
  9 10  2  0  0  0
  9 11  1  0  0  0
 10 14  1  0  0  0
 10 35  1  0  0  0
 11 15  2  0  0  0
 11 36  1  0  0  0
 12 13  1  0  0  0
 12 14  2  0  0  0
 12 15  1  0  0  0
 13 16  1  0  0  0
 13 17  2  0  0  0
 14 37  1  0  0  0
 15 38  1  0  0  0
 16 19  2  0  0  0
 16 20  1  0  0  0
 17 18  1  0  0  0
 17 39  1  0  0  0
 18 40  1  0  0  0
 18 41  1  0  0  0
 18 55  1  0  0  0
 19 21  1  0  0  0
 19 42  1  0  0  0
 20 22  2  0  0  0
 20 43  1  0  0  0
 21 25  2  0  0  0
 22 25  1  0  0  0
 22 44  1  0  0  0
 23 45  1  0  0  0
 23 46  1  0  0  0
 23 47  1  0  0  0
 23 55  1  0  0  0
 24 48  1  0  0  0
 24 49  1  0  0  0
 24 50  1  0  0  0
 24 55  1  0  0  0
 25 51  1  0  0  0
 26 52  1  0  0  0
 26 53  1  0  0  0
 26 54  1  0  0  0
 55 56  1  0  0  0
M  CHG  1  55   1
M  END
> <LID>
L016380

> <PC_CID>
21184570

> <Names>


> <CAS_Numbers>


$$$$
19390746
                    3D
 Structure written by MMmdl.
 50 54  0  0  1  0            999 V2000
   -4.3088   -2.7622    1.5339 O   0  0  0  0  0  0
    2.3110    0.1405   -1.6347 N   0  0  0  0  0  0
   -1.3376    0.6478   -0.5177 C   0  0  1  0  0  0
   -0.9040    1.1943    0.8922 C   0  0  1  0  0  0
   -2.5488    1.4814   -1.0260 C   0  0  0  0  0  0
   -0.1474    0.8098   -1.5245 C   0  0  0  0  0  0
    0.3584    0.4900    1.4636 C   0  0  0  0  0  0
   -0.7273    2.7300    0.8884 C   0  0  0  0  0  0
   -2.3504    3.0066   -0.9364 C   0  0  0  0  0  0
    1.1557    0.4052   -0.9224 C   0  0  0  0  0  0
    1.4026    0.2647    0.4130 C   0  0  0  0  0  0
   -1.7772   -0.8325   -0.3594 C   0  0  0  0  0  0
    2.7804   -0.1234    0.5415 C   0  0  0  0  0  0
    3.3376   -0.1957   -0.7716 C   0  0  0  0  0  0
   -1.8725    4.8858    0.5764 C   0  0  0  0  0  0
   -2.8486   -1.1570    0.5113 C   0  0  0  0  0  0
   -1.1441   -1.9010   -1.0474 C   0  0  0  0  0  0
    3.6362   -0.4252    1.6270 C   0  0  0  0  0  0
   -3.2744   -2.4873    0.6878 C   0  0  0  0  0  0
    4.6809   -0.5507   -0.9915 C   0  0  0  0  0  0
   -1.5679   -3.2324   -0.8721 C   0  0  0  0  0  0
   -2.6338   -3.5289   -0.0057 C   0  0  0  0  0  0
    4.9836   -0.7824    1.4152 C   0  0  0  0  0  0
    5.5065   -0.8454    0.1090 C   0  0  0  0  0  0
   -1.7056    1.0166    1.6092 H   0  0  0  0  0  0
   -3.4400    1.2523   -0.4429 H   0  0  0  0  0  0
   -2.7919    1.1982   -2.0509 H   0  0  0  0  0  0
   -0.0343    1.8517   -1.8155 H   0  0  0  0  0  0
   -0.3359    0.2900   -2.4639 H   0  0  0  0  0  0
    0.0660   -0.4760    1.8765 H   0  0  0  0  0  0
    0.7696    1.0543    2.3011 H   0  0  0  0  0  0
   -0.4925    3.0675    1.8990 H   0  0  0  0  0  0
    0.1146    3.0266    0.2612 H   0  0  0  0  0  0
   -1.6085    3.3555   -1.6546 H   0  0  0  0  0  0
   -3.2849    3.5013   -1.2046 H   0  0  0  0  0  0
    2.3690    0.1891   -2.6417 H   0  0  0  0  0  0
   -2.8153    5.3577    0.2975 H   0  0  0  0  0  0
   -1.6580    5.1610    1.6096 H   0  0  0  0  0  0
   -1.0845    5.2954   -0.0571 H   0  0  0  0  0  0
   -3.3617   -0.3837    1.0625 H   0  0  0  0  0  0
   -0.3162   -1.7395   -1.7185 H   0  0  0  0  0  0
    3.2497   -0.3814    2.6345 H   0  0  0  0  0  0
    5.0759   -0.5971   -1.9955 H   0  0  0  0  0  0
   -1.0701   -4.0296   -1.4044 H   0  0  0  0  0  0
   -2.9531   -4.5526    0.1242 H   0  0  0  0  0  0
    5.6186   -1.0091    2.2592 H   0  0  0  0  0  0
    6.5396   -1.1196   -0.0474 H   0  0  0  0  0  0
   -4.5156   -3.6830    1.5822 H   0  0  0  0  0  0
   -1.9599    3.4161    0.4328 N   0  3  2  0  0  0
   -2.7020    3.1131    1.0478 H   0  0  0  0  0  0
  1 19  1  0  0  0
  1 48  1  0  0  0
  2 10  1  0  0  0
  2 14  1  0  0  0
  2 36  1  0  0  0
  3  4  1  0  0  0
  3  5  1  0  0  0
  3  6  1  0  0  0
  3 12  1  0  0  0
  4  7  1  0  0  0
  4  8  1  0  0  0
  4 25  1  0  0  0
  5  9  1  0  0  0
  5 26  1  0  0  0
  5 27  1  0  0  0
  6 10  1  0  0  0
  6 28  1  0  0  0
  6 29  1  0  0  0
  7 11  1  0  0  0
  7 30  1  0  0  0
  7 31  1  0  0  0
  8 32  1  0  0  0
  8 33  1  0  0  0
  8 49  1  0  0  0
  9 34  1  0  0  0
  9 35  1  0  0  0
  9 49  1  0  0  0
 10 11  2  0  0  0
 11 13  1  0  0  0
 12 16  2  0  0  0
 12 17  1  0  0  0
 13 14  1  0  0  0
 13 18  2  0  0  0
 14 20  2  0  0  0
 15 37  1  0  0  0
 15 38  1  0  0  0
 15 39  1  0  0  0
 15 49  1  0  0  0
 16 19  1  0  0  0
 16 40  1  0  0  0
 17 21  2  0  0  0
 17 41  1  0  0  0
 18 23  1  0  0  0
 18 42  1  0  0  0
 19 22  2  0  0  0
 20 24  1  0  0  0
 20 43  1  0  0  0
 21 22  1  0  0  0
 21 44  1  0  0  0
 22 45  1  0  0  0
 23 24  2  0  0  0
 23 46  1  0  0  0
 24 47  1  0  0  0
 49 50  1  0  0  0
M  CHG  1  49   1
M  END
> <LID>
L008274

> <PC_CID>
19390746

> <Names>


> <CAS_Numbers>


$$$$
44213169
                    3D
 Structure written by MMmdl.
 71 77  0  0  1  0            999 V2000
    0.0816    2.1905   -1.4702 O   0  0  0  0  0  0
   -1.1496   -2.0374   -0.4380 O   0  0  0  0  0  0
   -0.1925    4.9663   -0.4878 O   0  0  0  0  0  0
    5.2050    1.4315    0.0977 O   0  0  0  0  0  0
    2.5166    0.6158   -0.7579 N   0  0  0  0  0  0
    5.5776   -0.8095    0.1591 N   0  0  0  0  0  0
   -1.3135    0.3882   -0.7341 C   0  0  1  0  0  0
   -1.3244   -0.8114    0.2608 C   0  0  1  0  0  0
   -2.7399   -0.8205    0.9027 C   0  0  1  0  0  0
    0.0594    0.7543   -1.3841 C   0  0  2  0  0  0
   -2.3963    0.1756   -1.8230 C   0  0  0  0  0  0
   -1.5913    1.6549    0.0254 C   0  0  0  0  0  0
   -0.1656   -0.7788    1.3028 C   0  0  0  0  0  0
   -3.0496    0.4966    1.6794 C   0  0  0  0  0  0
   -3.7961   -0.0592   -1.2275 C   0  0  0  0  0  0
   -2.4671    1.7951    1.1151 C   0  0  0  0  0  0
    1.1945    0.3481   -0.5014 C   0  0  0  0  0  0
    1.1329   -0.3251    0.6832 C   0  0  0  0  0  0
   -5.1008   -1.4553    0.3661 C   0  0  0  0  0  0
   -0.7884    2.6412   -0.5178 C   0  0  0  0  0  0
   -5.8381   -2.4026   -0.5629 C   0  0  0  0  0  0
   -7.0050   -3.2128   -0.0466 C   0  0  0  0  0  0
   -5.7110   -3.9006   -0.4050 C   0  0  0  0  0  0
    2.4675   -0.4711    1.1803 C   0  0  0  0  0  0
   -2.5959    3.1009    1.6338 C   0  0  0  0  0  0
   -0.9401    3.9397    0.0088 C   0  0  0  0  0  0
    3.3035    0.0921    0.2440 C   0  0  0  0  0  0
   -1.8533    4.1680    1.0684 C   0  0  0  0  0  0
    2.8507   -1.1042    2.4947 C   0  0  0  0  0  0
    4.7692    0.2817    0.1693 C   0  0  0  0  0  0
    7.0399   -0.6631    0.1999 C   0  0  0  0  0  0
    5.1111   -2.1945   -0.0137 C   0  0  0  0  0  0
    7.5485   -0.5650    1.6448 C   0  0  0  0  0  0
    4.8364   -2.5166   -1.4898 C   0  0  0  0  0  0
   -2.7891   -1.6514    1.6084 H   0  0  0  0  0  0
    0.1793    0.2993   -2.3680 H   0  0  0  0  0  0
   -2.1275   -0.6774   -2.4472 H   0  0  0  0  0  0
   -2.4301    1.0326   -2.4971 H   0  0  0  0  0  0
   -0.0330   -1.7475    1.7867 H   0  0  0  0  0  0
   -0.3840   -0.0693    2.1002 H   0  0  0  0  0  0
   -2.6377    0.4005    2.6843 H   0  0  0  0  0  0
   -4.1207    0.6294    1.8287 H   0  0  0  0  0  0
   -4.2057    0.8711   -0.8329 H   0  0  0  0  0  0
   -4.4696   -0.3677   -2.0265 H   0  0  0  0  0  0
   -5.7038   -0.5591    0.5178 H   0  0  0  0  0  0
   -5.0093   -1.9377    1.3403 H   0  0  0  0  0  0
   -5.9567   -2.0344   -1.5796 H   0  0  0  0  0  0
   -0.9872   -2.7264    0.1890 H   0  0  0  0  0  0
   -7.2538   -3.1325    1.0099 H   0  0  0  0  0  0
   -7.8520   -3.3566   -0.7145 H   0  0  0  0  0  0
   -5.6952   -4.5013   -1.3122 H   0  0  0  0  0  0
   -5.1000   -4.2772    0.4132 H   0  0  0  0  0  0
    2.8640    1.1189   -1.5620 H   0  0  0  0  0  0
   -3.2425    3.2851    2.4792 H   0  0  0  0  0  0
   -1.9583    5.1624    1.4770 H   0  0  0  0  0  0
    2.2748   -0.6602    3.3068 H   0  0  0  0  0  0
    2.6444   -2.1743    2.4733 H   0  0  0  0  0  0
    3.9093   -0.9603    2.7115 H   0  0  0  0  0  0
    0.3928    4.6863   -1.1752 H   0  0  0  0  0  0
    7.5196   -1.5079   -0.2964 H   0  0  0  0  0  0
    7.3615    0.2127   -0.3662 H   0  0  0  0  0  0
    5.8602   -2.8880    0.3709 H   0  0  0  0  0  0
    4.2223   -2.4023    0.5762 H   0  0  0  0  0  0
    8.6346   -0.4748    1.6675 H   0  0  0  0  0  0
    7.1335    0.3059    2.1532 H   0  0  0  0  0  0
    7.2764   -1.4505    2.2198 H   0  0  0  0  0  0
    4.0426   -1.8882   -1.8944 H   0  0  0  0  0  0
    5.7276   -2.3661   -2.0996 H   0  0  0  0  0  0
    4.5260   -3.5550   -1.6069 H   0  0  0  0  0  0
   -3.7594   -1.0941   -0.1598 N   0  3  2  0  0  0
   -3.4161   -1.9323   -0.6088 H   0  0  0  0  0  0
  1 10  1  0  0  0
  1 20  1  0  0  0
  2  8  1  0  0  0
  2 48  1  0  0  0
  3 26  1  0  0  0
  3 59  1  0  0  0
  4 30  2  0  0  0
  5 17  1  0  0  0
  5 27  1  0  0  0
  5 53  1  0  0  0
  6 30  1  0  0  0
  6 31  1  0  0  0
  6 32  1  0  0  0
  7  8  1  0  0  0
  7 10  1  0  0  0
  7 11  1  0  0  0
  7 12  1  0  0  0
  8  9  1  0  0  0
  8 13  1  0  0  0
  9 14  1  0  0  0
  9 35  1  0  0  0
  9 70  1  0  0  0
 10 17  1  0  0  0
 10 36  1  0  0  0
 11 15  1  0  0  0
 11 37  1  0  0  0
 11 38  1  0  0  0
 12 16  2  0  0  0
 12 20  1  0  0  0
 13 18  1  0  0  0
 13 39  1  0  0  0
 13 40  1  0  0  0
 14 16  1  0  0  0
 14 41  1  0  0  0
 14 42  1  0  0  0
 15 43  1  0  0  0
 15 44  1  0  0  0
 15 70  1  0  0  0
 16 25  1  0  0  0
 17 18  2  0  0  0
 18 24  1  0  0  0
 19 21  1  0  0  0
 19 45  1  0  0  0
 19 46  1  0  0  0
 19 70  1  0  0  0
 20 26  2  0  0  0
 21 22  1  0  0  0
 21 23  1  0  0  0
 21 47  1  0  0  0
 22 23  1  0  0  0
 22 49  1  0  0  0
 22 50  1  0  0  0
 23 51  1  0  0  0
 23 52  1  0  0  0
 24 27  2  0  0  0
 24 29  1  0  0  0
 25 28  2  0  0  0
 25 54  1  0  0  0
 26 28  1  0  0  0
 27 30  1  0  0  0
 28 55  1  0  0  0
 29 56  1  0  0  0
 29 57  1  0  0  0
 29 58  1  0  0  0
 31 33  1  0  0  0
 31 60  1  0  0  0
 31 61  1  0  0  0
 32 34  1  0  0  0
 32 62  1  0  0  0
 32 63  1  0  0  0
 33 64  1  0  0  0
 33 65  1  0  0  0
 33 66  1  0  0  0
 34 67  1  0  0  0
 34 68  1  0  0  0
 34 69  1  0  0  0
 70 71  1  0  0  0
M  CHG  1  70   1
M  END
> <LID>
L014401

> <PC_CID>
44213169

> <Names>


> <CAS_Numbers>


$$$$
44213168
                    3D
 Structure written by MMmdl.
 71 76  0  0  1  0            999 V2000
    0.2654    2.0769   -1.5295 O   0  0  0  0  0  0
   -1.1357   -2.0597   -0.3549 O   0  0  0  0  0  0
    0.0963    4.8948   -0.6483 O   0  0  0  0  0  0
    5.3480    1.1740    0.0941 O   0  0  0  0  0  0
    2.6333    0.4343   -0.7474 N   0  0  0  0  0  0
    5.6318   -1.0763    0.2374 N   0  0  0  0  0  0
   -1.2028    0.3582   -0.7377 C   0  0  1  0  0  0
   -1.2654   -0.8037    0.2990 C   0  0  1  0  0  0
   -2.6831   -0.7344    0.9325 C   0  0  1  0  0  0
    0.1863    0.6466   -1.3924 C   0  0  2  0  0  0
   -2.2883    0.1494   -1.8245 C   0  0  0  0  0  0
   -1.4338    1.6612   -0.0255 C   0  0  0  0  0  0
   -0.1108   -0.7795    1.3459 C   0  0  0  0  0  0
   -2.9433    0.6208    1.6605 C   0  0  0  0  0  0
   -3.6989   -0.0092   -1.2294 C   0  0  0  0  0  0
   -2.3082    1.8745    1.0534 C   0  0  0  0  0  0
    1.3006    0.2280   -0.4893 C   0  0  0  0  0  0
    1.2073   -0.3995    0.7181 C   0  0  0  0  0  0
   -0.5903    2.5952   -0.5989 C   0  0  0  0  0  0
   -5.0670   -1.2938    0.4046 C   0  0  0  0  0  0
    2.5329   -0.5798    1.2278 C   0  0  0  0  0  0
   -2.3879    3.2022    1.5244 C   0  0  0  0  0  0
   -0.6933    3.9167   -0.1198 C   0  0  0  0  0  0
    3.3946   -0.0836    0.2769 C   0  0  0  0  0  0
   -1.6015    4.2184    0.9256 C   0  0  0  0  0  0
   -5.8516   -2.2522   -0.5064 C   0  0  0  0  0  0
    2.8850   -1.1800    2.5662 C   0  0  0  0  0  0
    4.8669    0.0455    0.2041 C   0  0  0  0  0  0
   -7.2139   -2.5849    0.0663 C   0  0  0  0  0  0
   -8.3790   -2.3427   -0.5530 C   0  0  0  0  0  0
    7.0984   -0.9860    0.2815 C   0  0  0  0  0  0
    5.1118   -2.4472    0.1112 C   0  0  0  0  0  0
    7.6042   -0.8561    1.7249 C   0  0  0  0  0  0
    4.8312   -2.8109   -1.3540 C   0  0  0  0  0  0
   -2.7671   -1.5367    1.6674 H   0  0  0  0  0  0
    0.2925    0.1524   -2.3588 H   0  0  0  0  0  0
   -2.0504   -0.7351   -2.4166 H   0  0  0  0  0  0
   -2.2854    0.9825   -2.5288 H   0  0  0  0  0  0
   -0.0186   -1.7346    1.8646 H   0  0  0  0  0  0
   -0.3044   -0.0339    2.1163 H   0  0  0  0  0  0
   -2.5386    0.5445    2.6700 H   0  0  0  0  0  0
   -4.0086    0.8012    1.8007 H   0  0  0  0  0  0
   -4.0736    0.9498   -0.8704 H   0  0  0  0  0  0
   -4.3793   -0.3189   -2.0218 H   0  0  0  0  0  0
   -1.0019   -2.7316    0.2971 H   0  0  0  0  0  0
   -4.9860   -1.7553    1.3898 H   0  0  0  0  0  0
   -5.6196   -0.3636    0.5451 H   0  0  0  0  0  0
    3.0038    0.8944   -1.5669 H   0  0  0  0  0  0
   -3.0304    3.4417    2.3589 H   0  0  0  0  0  0
   -1.6691    5.2302    1.2978 H   0  0  0  0  0  0
   -5.9807   -1.8261   -1.5014 H   0  0  0  0  0  0
   -5.2994   -3.1841   -0.6325 H   0  0  0  0  0  0
    2.3235   -0.6850    3.3585 H   0  0  0  0  0  0
    2.6368   -2.2413    2.5815 H   0  0  0  0  0  0
    3.9476   -1.0702    2.7838 H   0  0  0  0  0  0
    0.6732    4.5676   -1.3219 H   0  0  0  0  0  0
   -7.2239   -3.0508    1.0412 H   0  0  0  0  0  0
   -9.3184   -2.6060   -0.0894 H   0  0  0  0  0  0
   -8.4131   -1.8798   -1.5285 H   0  0  0  0  0  0
    7.5467   -1.8662   -0.1816 H   0  0  0  0  0  0
    7.4568   -0.1443   -0.3137 H   0  0  0  0  0  0
    5.8313   -3.1553    0.5247 H   0  0  0  0  0  0
    4.2128   -2.5987    0.7030 H   0  0  0  0  0  0
    8.6929   -0.8078    1.7507 H   0  0  0  0  0  0
    7.2215    0.0480    2.1995 H   0  0  0  0  0  0
    7.2949   -1.7091    2.3295 H   0  0  0  0  0  0
    4.4806   -3.8398   -1.4360 H   0  0  0  0  0  0
    4.0646   -2.1666   -1.7854 H   0  0  0  0  0  0
    5.7303   -2.7174   -1.9636 H   0  0  0  0  0  0
   -3.7085   -1.0062   -0.1255 N   0  3  2  0  0  0
   -3.3956   -1.8723   -0.5425 H   0  0  0  0  0  0
  1 10  1  0  0  0
  1 19  1  0  0  0
  2  8  1  0  0  0
  2 45  1  0  0  0
  3 23  1  0  0  0
  3 56  1  0  0  0
  4 28  2  0  0  0
  5 17  1  0  0  0
  5 24  1  0  0  0
  5 48  1  0  0  0
  6 28  1  0  0  0
  6 31  1  0  0  0
  6 32  1  0  0  0
  7  8  1  0  0  0
  7 10  1  0  0  0
  7 11  1  0  0  0
  7 12  1  0  0  0
  8  9  1  0  0  0
  8 13  1  0  0  0
  9 14  1  0  0  0
  9 35  1  0  0  0
  9 70  1  0  0  0
 10 17  1  0  0  0
 10 36  1  0  0  0
 11 15  1  0  0  0
 11 37  1  0  0  0
 11 38  1  0  0  0
 12 16  2  0  0  0
 12 19  1  0  0  0
 13 18  1  0  0  0
 13 39  1  0  0  0
 13 40  1  0  0  0
 14 16  1  0  0  0
 14 41  1  0  0  0
 14 42  1  0  0  0
 15 43  1  0  0  0
 15 44  1  0  0  0
 15 70  1  0  0  0
 16 22  1  0  0  0
 17 18  2  0  0  0
 18 21  1  0  0  0
 19 23  2  0  0  0
 20 26  1  0  0  0
 20 46  1  0  0  0
 20 47  1  0  0  0
 20 70  1  0  0  0
 21 24  2  0  0  0
 21 27  1  0  0  0
 22 25  2  0  0  0
 22 49  1  0  0  0
 23 25  1  0  0  0
 24 28  1  0  0  0
 25 50  1  0  0  0
 26 29  1  0  0  0
 26 51  1  0  0  0
 26 52  1  0  0  0
 27 53  1  0  0  0
 27 54  1  0  0  0
 27 55  1  0  0  0
 29 30  2  0  0  0
 29 57  1  0  0  0
 30 58  1  0  0  0
 30 59  1  0  0  0
 31 33  1  0  0  0
 31 60  1  0  0  0
 31 61  1  0  0  0
 32 34  1  0  0  0
 32 62  1  0  0  0
 32 63  1  0  0  0
 33 64  1  0  0  0
 33 65  1  0  0  0
 33 66  1  0  0  0
 34 67  1  0  0  0
 34 68  1  0  0  0
 34 69  1  0  0  0
 70 71  1  0  0  0
M  CHG  1  70   1
M  END
> <LID>
L014400

> <PC_CID>
44213168

> <Names>


> <CAS_Numbers>


$$$$
44213167
                    3D
 Structure written by MMmdl.
 64 69  0  0  1  0            999 V2000
   -0.7992   -1.1865    1.9641 O   0  0  0  0  0  0
   -1.2911    2.7445   -0.2153 O   0  0  0  0  0  0
   -1.5454   -4.0402    1.7497 O   0  0  0  0  0  0
    4.3742   -1.7375    0.4764 O   0  0  0  0  0  0
    1.8666   -0.2883    0.9631 N   0  0  0  0  0  0
    5.1237    0.3094   -0.1668 N   0  0  0  0  0  0
   -1.8687    0.5526    0.7117 C   0  0  1  0  0  0
   -1.6767    1.4222   -0.5687 C   0  0  1  0  0  0
   -3.0726    1.4920   -1.2504 C   0  0  1  0  0  0
   -0.5764    0.1556    1.4953 C   0  0  2  0  0  0
   -2.8981    1.2253    1.6575 C   0  0  0  0  0  0
   -2.3594   -0.8088    0.3075 C   0  0  0  0  0  0
   -0.5433    0.9170   -1.5120 C   0  0  0  0  0  0
   -3.6005    0.0813   -1.6597 C   0  0  0  0  0  0
   -4.2380    1.5215    0.9597 C   0  0  0  0  0  0
   -3.2486   -1.0927   -0.7424 C   0  0  0  0  0  0
    0.6090    0.1140    0.5865 C   0  0  0  0  0  0
    0.6602    0.4408   -0.7367 C   0  0  0  0  0  0
   -1.7354   -1.7290    1.1299 C   0  0  0  0  0  0
    1.9988    0.2241   -1.1956 C   0  0  0  0  0  0
   -5.2769    2.6545   -0.9797 C   0  0  0  0  0  0
   -3.5997   -2.4505   -0.8978 C   0  0  0  0  0  0
   -2.1079   -3.0781    0.9639 C   0  0  0  0  0  0
    2.7289   -0.1936   -0.1068 C   0  0  0  0  0  0
   -3.0491   -3.4314   -0.0351 C   0  0  0  0  0  0
    2.4812    0.4042   -2.6135 C   0  0  0  0  0  0
    4.1409   -0.5948    0.0803 C   0  0  0  0  0  0
    6.5394   -0.0817   -0.1024 C   0  0  0  0  0  0
    4.9007    1.7464   -0.3920 C   0  0  0  0  0  0
    7.0202   -0.6509   -1.4444 C   0  0  0  0  0  0
    4.6887    2.4979    0.9303 C   0  0  0  0  0  0
   -2.9906    2.0996   -2.1532 H   0  0  0  0  0  0
   -0.3780    0.8344    2.3255 H   0  0  0  0  0  0
   -2.4853    2.1577    2.0445 H   0  0  0  0  0  0
   -3.0768    0.5987    2.5325 H   0  0  0  0  0  0
   -0.2484    1.6821   -2.2314 H   0  0  0  0  0  0
   -0.8811    0.0636   -2.0989 H   0  0  0  0  0  0
   -3.1742   -0.1676   -2.6319 H   0  0  0  0  0  0
   -4.6769    0.0844   -1.8233 H   0  0  0  0  0  0
   -4.8065    0.6035    0.8075 H   0  0  0  0  0  0
   -4.8484    2.1527    1.6066 H   0  0  0  0  0  0
   -1.0136    3.2010   -0.9956 H   0  0  0  0  0  0
    2.1251   -0.6043    1.8871 H   0  0  0  0  0  0
   -5.8119    3.3395   -0.3211 H   0  0  0  0  0  0
   -5.0733    3.1862   -1.9097 H   0  0  0  0  0  0
   -5.9420    1.8193   -1.1984 H   0  0  0  0  0  0
   -4.2698   -2.7479   -1.6910 H   0  0  0  0  0  0
   -3.3232   -4.4680   -0.1668 H   0  0  0  0  0  0
    1.8359   -0.1423   -3.3013 H   0  0  0  0  0  0
    2.4606    1.4587   -2.8886 H   0  0  0  0  0  0
    3.4992    0.0344   -2.7370 H   0  0  0  0  0  0
   -0.9193   -3.6847    2.3623 H   0  0  0  0  0  0
    7.1575    0.7750    0.1700 H   0  0  0  0  0  0
    6.7083   -0.8114    0.6912 H   0  0  0  0  0  0
    5.7563    2.1761   -0.9150 H   0  0  0  0  0  0
    4.0590    1.9299   -1.0545 H   0  0  0  0  0  0
    8.0750   -0.9217   -1.3943 H   0  0  0  0  0  0
    6.4614   -1.5462   -1.7187 H   0  0  0  0  0  0
    6.9018    0.0775   -2.2471 H   0  0  0  0  0  0
    4.5604    3.5655    0.7512 H   0  0  0  0  0  0
    3.8004    2.1428    1.4532 H   0  0  0  0  0  0
    5.5427    2.3738    1.5967 H   0  0  0  0  0  0
   -4.0191    2.2075   -0.3379 N   0  3  2  0  0  0
   -3.5277    3.0588   -0.1009 H   0  0  0  0  0  0
  1 10  1  0  0  0
  1 19  1  0  0  0
  2  8  1  0  0  0
  2 42  1  0  0  0
  3 23  1  0  0  0
  3 52  1  0  0  0
  4 27  2  0  0  0
  5 17  1  0  0  0
  5 24  1  0  0  0
  5 43  1  0  0  0
  6 27  1  0  0  0
  6 28  1  0  0  0
  6 29  1  0  0  0
  7  8  1  0  0  0
  7 10  1  0  0  0
  7 11  1  0  0  0
  7 12  1  0  0  0
  8  9  1  0  0  0
  8 13  1  0  0  0
  9 14  1  0  0  0
  9 32  1  0  0  0
  9 63  1  0  0  0
 10 17  1  0  0  0
 10 33  1  0  0  0
 11 15  1  0  0  0
 11 34  1  0  0  0
 11 35  1  0  0  0
 12 16  2  0  0  0
 12 19  1  0  0  0
 13 18  1  0  0  0
 13 36  1  0  0  0
 13 37  1  0  0  0
 14 16  1  0  0  0
 14 38  1  0  0  0
 14 39  1  0  0  0
 15 40  1  0  0  0
 15 41  1  0  0  0
 15 63  1  0  0  0
 16 22  1  0  0  0
 17 18  2  0  0  0
 18 20  1  0  0  0
 19 23  2  0  0  0
 20 24  2  0  0  0
 20 26  1  0  0  0
 21 44  1  0  0  0
 21 45  1  0  0  0
 21 46  1  0  0  0
 21 63  1  0  0  0
 22 25  2  0  0  0
 22 47  1  0  0  0
 23 25  1  0  0  0
 24 27  1  0  0  0
 25 48  1  0  0  0
 26 49  1  0  0  0
 26 50  1  0  0  0
 26 51  1  0  0  0
 28 30  1  0  0  0
 28 53  1  0  0  0
 28 54  1  0  0  0
 29 31  1  0  0  0
 29 55  1  0  0  0
 29 56  1  0  0  0
 30 57  1  0  0  0
 30 58  1  0  0  0
 30 59  1  0  0  0
 31 60  1  0  0  0
 31 61  1  0  0  0
 31 62  1  0  0  0
 63 64  1  0  0  0
M  CHG  1  63   1
M  END
> <LID>
L014399

> <PC_CID>
44213167

> <Names>


> <CAS_Numbers>


$$$$
44213166
                    3D
 Structure written by MMmdl.
 66 71  0  0  1  0            999 V2000
   -0.8806   -1.3519    1.5233 O   0  0  0  0  0  0
   -2.0367   -4.0615    0.5479 O   0  0  0  0  0  0
    4.2463   -1.9509   -0.1410 O   0  0  0  0  0  0
    1.8740   -0.4681    0.7466 N   0  0  0  0  0  0
    5.1802    0.1184   -0.2434 N   0  0  0  0  0  0
   -1.7655    0.7396    0.7950 C   0  0  1  0  0  0
   -1.4838    1.8772   -0.2214 C   0  0  2  0  0  0
   -2.8538    2.2818   -0.8182 C   0  0  1  0  0  0
   -0.5226    0.0349    1.4164 C   0  0  2  0  0  0
   -2.6784    1.2957    1.9156 C   0  0  0  0  0  0
   -2.4133   -0.4145    0.0881 C   0  0  0  0  0  0
   -0.4073    1.5370   -1.2880 C   0  0  0  0  0  0
   -3.5595    1.0895   -1.5369 C   0  0  0  0  0  0
   -3.9770    1.9193    1.3735 C   0  0  0  0  0  0
   -3.3431   -0.3121   -0.9586 C   0  0  0  0  0  0
    0.6595    0.1267    0.5088 C   0  0  0  0  0  0
    0.7489    0.7840   -0.6826 C   0  0  0  0  0  0
   -1.8847   -1.5800    0.6206 C   0  0  0  0  0  0
    2.0669    0.5816   -1.2033 C   0  0  0  0  0  0
   -4.8895    3.5987   -0.1957 C   0  0  0  0  0  0
   -3.8551   -1.5323   -1.4396 C   0  0  0  0  0  0
   -2.4195   -2.8037    0.1308 C   0  0  0  0  0  0
    2.7494   -0.1698   -0.2743 C   0  0  0  0  0  0
   -3.4123   -2.7559   -0.8816 C   0  0  0  0  0  0
    2.5728    1.0844   -2.5325 C   0  0  0  0  0  0
    4.1187   -0.7286   -0.2226 C   0  0  0  0  0  0
   -1.0219   -4.1782    1.5326 C   0  0  0  0  0  0
    6.5546   -0.3993   -0.3094 C   0  0  0  0  0  0
    5.0889    1.5781   -0.0811 C   0  0  0  0  0  0
    6.9890   -0.6390   -1.7619 C   0  0  0  0  0  0
    4.9412    1.9726    1.3956 C   0  0  0  0  0  0
   -1.0801    2.7214    0.3408 H   0  0  0  0  0  0
   -2.6922    3.0774   -1.5472 H   0  0  0  0  0  0
   -0.2640    0.4459    2.3929 H   0  0  0  0  0  0
   -2.1323    2.0553    2.4767 H   0  0  0  0  0  0
   -2.9233    0.5109    2.6329 H   0  0  0  0  0  0
   -0.0452    2.4458   -1.7693 H   0  0  0  0  0  0
   -0.8213    0.9072   -2.0751 H   0  0  0  0  0  0
   -3.1781    1.0442   -2.5574 H   0  0  0  0  0  0
   -4.6291    1.2589   -1.6491 H   0  0  0  0  0  0
   -4.6613    1.1436    1.0278 H   0  0  0  0  0  0
   -4.4916    2.4416    2.1810 H   0  0  0  0  0  0
    2.0964   -1.0381    1.5504 H   0  0  0  0  0  0
   -5.3283    4.1665    0.6254 H   0  0  0  0  0  0
   -4.6348    4.3071   -0.9847 H   0  0  0  0  0  0
   -5.6548    2.9215   -0.5743 H   0  0  0  0  0  0
   -4.5663   -1.5377   -2.2525 H   0  0  0  0  0  0
   -3.8148   -3.6816   -1.2661 H   0  0  0  0  0  0
    1.8865    0.7953   -3.3285 H   0  0  0  0  0  0
    2.6469    2.1718   -2.5218 H   0  0  0  0  0  0
    3.5551    0.6730   -2.7654 H   0  0  0  0  0  0
   -0.8492   -5.2331    1.7449 H   0  0  0  0  0  0
   -0.0782   -3.7560    1.1846 H   0  0  0  0  0  0
   -1.3154   -3.7001    2.4678 H   0  0  0  0  0  0
    7.2460    0.2987    0.1649 H   0  0  0  0  0  0
    6.6530   -1.3227    0.2638 H   0  0  0  0  0  0
    5.9816    2.0525   -0.4912 H   0  0  0  0  0  0
    4.2694    2.0023   -0.6553 H   0  0  0  0  0  0
    8.0148   -1.0055   -1.8037 H   0  0  0  0  0  0
    6.3532   -1.3789   -2.2492 H   0  0  0  0  0  0
    6.9407    0.2811   -2.3451 H   0  0  0  0  0  0
    4.9101    3.0568    1.5042 H   0  0  0  0  0  0
    4.0229    1.5721    1.8257 H   0  0  0  0  0  0
    5.7784    1.6038    1.9888 H   0  0  0  0  0  0
   -3.6869    2.8717    0.2731 N   0  3  2  0  0  0
   -3.1017    3.5847    0.6852 H   0  0  0  0  0  0
  1  9  1  0  0  0
  1 18  1  0  0  0
  2 22  1  0  0  0
  2 27  1  0  0  0
  3 26  2  0  0  0
  4 16  1  0  0  0
  4 23  1  0  0  0
  4 43  1  0  0  0
  5 26  1  0  0  0
  5 28  1  0  0  0
  5 29  1  0  0  0
  6  7  1  0  0  0
  6  9  1  0  0  0
  6 10  1  0  0  0
  6 11  1  0  0  0
  7  8  1  0  0  0
  7 12  1  0  0  0
  7 32  1  0  0  0
  8 13  1  0  0  0
  8 33  1  0  0  0
  8 65  1  0  0  0
  9 16  1  0  0  0
  9 34  1  0  0  0
 10 14  1  0  0  0
 10 35  1  0  0  0
 10 36  1  0  0  0
 11 15  2  0  0  0
 11 18  1  0  0  0
 12 17  1  0  0  0
 12 37  1  0  0  0
 12 38  1  0  0  0
 13 15  1  0  0  0
 13 39  1  0  0  0
 13 40  1  0  0  0
 14 41  1  0  0  0
 14 42  1  0  0  0
 14 65  1  0  0  0
 15 21  1  0  0  0
 16 17  2  0  0  0
 17 19  1  0  0  0
 18 22  2  0  0  0
 19 23  2  0  0  0
 19 25  1  0  0  0
 20 44  1  0  0  0
 20 45  1  0  0  0
 20 46  1  0  0  0
 20 65  1  0  0  0
 21 24  2  0  0  0
 21 47  1  0  0  0
 22 24  1  0  0  0
 23 26  1  0  0  0
 24 48  1  0  0  0
 25 49  1  0  0  0
 25 50  1  0  0  0
 25 51  1  0  0  0
 27 52  1  0  0  0
 27 53  1  0  0  0
 27 54  1  0  0  0
 28 30  1  0  0  0
 28 55  1  0  0  0
 28 56  1  0  0  0
 29 31  1  0  0  0
 29 57  1  0  0  0
 29 58  1  0  0  0
 30 59  1  0  0  0
 30 60  1  0  0  0
 30 61  1  0  0  0
 31 62  1  0  0  0
 31 63  1  0  0  0
 31 64  1  0  0  0
 65 66  1  0  0  0
M  CHG  1  65   1
M  END
> <LID>
L014398

> <PC_CID>
44213166

> <Names>


> <CAS_Numbers>


$$$$
10163397
                    3D
 Structure written by MMmdl.
 73 77  0  0  1  0            999 V2000
    6.1471   -0.3490   -0.1965 O   0  0  0  0  0  0
   -1.0154    2.9525   -1.3499 N   0  0  0  0  0  0
    5.3205   -2.4676   -0.0637 N   0  0  0  0  0  0
   -1.1540    0.5647    0.9611 C   0  0  0  0  0  0
   -2.5300    1.1618    1.2325 C   0  0  0  0  0  0
   -1.2215   -0.9545    0.8587 C   0  0  0  0  0  0
   -3.5512    0.6889    0.1861 C   0  0  0  0  0  0
   -2.2756   -1.3910   -0.1733 C   0  0  0  0  0  0
   -0.0216    1.2963    0.8003 C   0  0  0  0  0  0
   -4.6723   -1.2606   -0.8140 C   0  0  0  0  0  0
   -0.0410    2.7710    0.8546 C   0  0  0  0  0  0
    1.2923    0.6664    0.5882 C   0  0  0  0  0  0
   -5.0028   -2.7296   -0.6161 C   0  0  0  0  0  0
   -0.5282    3.5473   -0.2316 C   0  0  0  0  0  0
    0.4828    3.4034    2.0023 C   0  0  0  0  0  0
    1.9846    0.8640   -0.6249 C   0  0  0  0  0  0
    1.8946   -0.1015    1.6080 C   0  0  0  0  0  0
   -4.5244   -3.6975   -1.5254 C   0  0  0  0  0  0
   -5.7950   -3.1330    0.4798 C   0  0  0  0  0  0
   -0.4944    4.9664   -0.1135 C   0  0  0  0  0  0
    3.2489    0.2784   -0.8280 C   0  0  0  0  0  0
    3.1587   -0.6879    1.4066 C   0  0  0  0  0  0
    3.8338   -0.5192    0.1779 C   0  0  0  0  0  0
    0.5080    4.8050    2.1006 C   0  0  0  0  0  0
    0.0164    5.5879    1.0432 C   0  0  0  0  0  0
   -4.8312   -5.0590   -1.3358 C   0  0  0  0  0  0
   -6.1015   -4.4948    0.6682 C   0  0  0  0  0  0
   -0.9786    5.7585   -1.1750 C   0  0  0  0  0  0
    5.1948   -1.1145   -0.0419 C   0  0  0  0  0  0
   -5.6192   -5.4579   -0.2390 C   0  0  0  0  0  0
   -1.4746    3.7170   -2.3616 C   0  0  0  0  0  0
   -1.4801    5.1221   -2.3237 C   0  0  0  0  0  0
    6.6440   -3.0931   -0.2009 C   0  0  0  0  0  0
    4.1983   -3.4209   -0.0554 C   0  0  0  0  0  0
    7.3174   -3.2798    1.1658 C   0  0  0  0  0  0
    3.5593   -3.5578   -1.4453 C   0  0  0  0  0  0
   -2.5181    2.2501    1.2649 H   0  0  0  0  0  0
   -2.8474    0.8384    2.2246 H   0  0  0  0  0  0
   -1.4780   -1.3528    1.8411 H   0  0  0  0  0  0
   -0.2643   -1.3974    0.5886 H   0  0  0  0  0  0
   -4.5353    1.0827    0.4435 H   0  0  0  0  0  0
   -3.2949    1.0941   -0.7943 H   0  0  0  0  0  0
   -1.9545   -1.1000   -1.1749 H   0  0  0  0  0  0
   -2.3402   -2.4789   -0.1667 H   0  0  0  0  0  0
   -5.5869   -0.6909   -0.6422 H   0  0  0  0  0  0
   -4.3801   -1.0711   -1.8483 H   0  0  0  0  0  0
    0.8665    2.8079    2.8182 H   0  0  0  0  0  0
    1.5454    1.4663   -1.4069 H   0  0  0  0  0  0
    1.3867   -0.2407    2.5512 H   0  0  0  0  0  0
   -3.9187   -3.4007   -2.3692 H   0  0  0  0  0  0
   -6.1699   -2.4006    1.1799 H   0  0  0  0  0  0
    3.7659    0.4397   -1.7631 H   0  0  0  0  0  0
    3.6083   -1.2672    2.2002 H   0  0  0  0  0  0
    0.9065    5.2787    2.9860 H   0  0  0  0  0  0
    0.0383    6.6653    1.1220 H   0  0  0  0  0  0
   -4.4625   -5.7978   -2.0323 H   0  0  0  0  0  0
   -6.7074   -4.8009    1.5083 H   0  0  0  0  0  0
   -0.9658    6.8371   -1.1139 H   0  0  0  0  0  0
   -5.8547   -6.5021   -0.0943 H   0  0  0  0  0  0
   -1.8504    3.1912   -3.2269 H   0  0  0  0  0  0
   -1.8578    5.6970   -3.1565 H   0  0  0  0  0  0
    6.5558   -4.0605   -0.6975 H   0  0  0  0  0  0
    7.2895   -2.5029   -0.8535 H   0  0  0  0  0  0
    4.5494   -4.4012    0.2701 H   0  0  0  0  0  0
    3.4411   -3.1526    0.6781 H   0  0  0  0  0  0
    8.2903   -3.7590    1.0554 H   0  0  0  0  0  0
    7.4748   -2.3230    1.6646 H   0  0  0  0  0  0
    6.7118   -3.9052    1.8224 H   0  0  0  0  0  0
    2.7579   -4.2966   -1.4303 H   0  0  0  0  0  0
    3.1306   -2.6148   -1.7849 H   0  0  0  0  0  0
    4.2920   -3.8789   -2.1862 H   0  0  0  0  0  0
   -3.6083   -0.7932    0.1096 N   0  3  2  0  0  0
   -3.8759   -1.1117    1.0300 H   0  0  0  0  0  0
  1 29  2  0  0  0
  2 14  1  0  0  0
  2 31  2  0  0  0
  3 29  1  0  0  0
  3 33  1  0  0  0
  3 34  1  0  0  0
  4  5  1  0  0  0
  4  6  1  0  0  0
  4  9  2  0  0  0
  5  7  1  0  0  0
  5 37  1  0  0  0
  5 38  1  0  0  0
  6  8  1  0  0  0
  6 39  1  0  0  0
  6 40  1  0  0  0
  7 41  1  0  0  0
  7 42  1  0  0  0
  7 72  1  0  0  0
  8 43  1  0  0  0
  8 44  1  0  0  0
  8 72  1  0  0  0
  9 11  1  0  0  0
  9 12  1  0  0  0
 10 13  1  0  0  0
 10 45  1  0  0  0
 10 46  1  0  0  0
 10 72  1  0  0  0
 11 14  1  0  0  0
 11 15  2  0  0  0
 12 16  2  0  0  0
 12 17  1  0  0  0
 13 18  2  0  0  0
 13 19  1  0  0  0
 14 20  2  0  0  0
 15 24  1  0  0  0
 15 47  1  0  0  0
 16 21  1  0  0  0
 16 48  1  0  0  0
 17 22  2  0  0  0
 17 49  1  0  0  0
 18 26  1  0  0  0
 18 50  1  0  0  0
 19 27  2  0  0  0
 19 51  1  0  0  0
 20 25  1  0  0  0
 20 28  1  0  0  0
 21 23  2  0  0  0
 21 52  1  0  0  0
 22 23  1  0  0  0
 22 53  1  0  0  0
 23 29  1  0  0  0
 24 25  2  0  0  0
 24 54  1  0  0  0
 25 55  1  0  0  0
 26 30  2  0  0  0
 26 56  1  0  0  0
 27 30  1  0  0  0
 27 57  1  0  0  0
 28 32  2  0  0  0
 28 58  1  0  0  0
 30 59  1  0  0  0
 31 32  1  0  0  0
 31 60  1  0  0  0
 32 61  1  0  0  0
 33 35  1  0  0  0
 33 62  1  0  0  0
 33 63  1  0  0  0
 34 36  1  0  0  0
 34 64  1  0  0  0
 34 65  1  0  0  0
 35 66  1  0  0  0
 35 67  1  0  0  0
 35 68  1  0  0  0
 36 69  1  0  0  0
 36 70  1  0  0  0
 36 71  1  0  0  0
 72 73  1  0  0  0
M  CHG  1  72   1
M  END
> <LID>
L020878

> <PC_CID>
10163397

> <Names>


> <CAS_Numbers>


$$$$
14873783
                    3D
 Structure written by MMmdl.
 62 63  0  0  1  0            999 V2000
   -2.2050    0.4345    2.5379 O   0  0  0  0  0  0
   -1.4365    2.2351    1.3636 O   0  0  0  0  0  0
   -1.7118   -1.9236   -1.8141 O   0  0  0  0  0  0
    8.3610   -0.5296   -0.3424 O   0  0  0  0  0  0
    8.4674    1.6125   -1.1538 O   0  0  0  0  0  0
   -2.6690   -0.4161   -0.3784 N   0  0  0  0  0  0
   -1.3798    0.0332    0.2800 C   0  0  0  0  0  0
   -0.5724   -1.1740    0.8707 C   0  0  0  0  0  0
   -0.4630    0.7285   -0.7800 C   0  0  0  0  0  0
    0.8338   -0.7814    1.3641 C   0  0  0  0  0  0
    0.9630    1.0403   -0.2742 C   0  0  0  0  0  0
    3.0419    0.0580    0.6612 C   0  0  0  0  0  0
   -1.6619    1.0267    1.4560 C   0  0  0  0  0  0
    3.9858    0.1614   -0.5502 C   0  0  0  0  0  0
   -3.8868    0.2608   -0.0563 C   0  0  0  0  0  0
   -2.7131   -1.3669   -1.3650 C   0  0  0  0  0  0
    5.4578    0.2918   -0.1343 C   0  0  0  0  0  0
   -4.0487   -1.7747   -2.0223 C   0  0  0  0  0  0
   -4.1750    1.5139   -0.6418 C   0  0  0  0  0  0
   -4.8014   -0.3157    0.8536 C   0  0  0  0  0  0
    6.3970    0.3960   -1.3469 C   0  0  0  0  0  0
   -4.5559   -3.1204   -1.4858 C   0  0  0  0  0  0
   -2.5627    1.2197    3.6616 C   0  0  0  0  0  0
   -5.3700    2.1845   -0.3179 C   0  0  0  0  0  0
   -5.9953    0.3580    1.1749 C   0  0  0  0  0  0
   -6.2794    1.6071    0.5895 C   0  0  0  0  0  0
    7.8583    0.5650   -0.9362 C   0  0  0  0  0  0
    9.7085   -0.5283    0.0960 C   0  0  0  0  0  0
   -1.1249   -1.6574    1.6773 H   0  0  0  0  0  0
   -0.4138   -1.9652    0.1441 H   0  0  0  0  0  0
   -0.3481    0.1094   -1.6675 H   0  0  0  0  0  0
   -0.9300    1.6460   -1.1414 H   0  0  0  0  0  0
    0.7829   -0.0960    2.2115 H   0  0  0  0  0  0
    1.3377   -1.6792    1.7245 H   0  0  0  0  0  0
    1.5384    1.4432   -1.1067 H   0  0  0  0  0  0
    0.9520    1.8190    0.4887 H   0  0  0  0  0  0
    3.1131    0.9494    1.2866 H   0  0  0  0  0  0
    3.3808   -0.7762    1.2772 H   0  0  0  0  0  0
    3.8677   -0.7215   -1.1798 H   0  0  0  0  0  0
    3.7216    1.0197   -1.1674 H   0  0  0  0  0  0
    5.5785    1.1730    0.4979 H   0  0  0  0  0  0
    5.7381   -0.5677    0.4765 H   0  0  0  0  0  0
   -4.8303   -1.0199   -1.9541 H   0  0  0  0  0  0
   -3.8636   -1.8796   -3.0920 H   0  0  0  0  0  0
   -3.4801    1.9626   -1.3366 H   0  0  0  0  0  0
   -4.5850   -1.2704    1.3105 H   0  0  0  0  0  0
    6.3098   -0.4959   -1.9679 H   0  0  0  0  0  0
    6.1096    1.2437   -1.9698 H   0  0  0  0  0  0
   -5.4453   -3.4408   -2.0286 H   0  0  0  0  0  0
   -3.8045   -3.9036   -1.5941 H   0  0  0  0  0  0
   -4.8205   -3.0532   -0.4304 H   0  0  0  0  0  0
   -2.9817    0.5824    4.4403 H   0  0  0  0  0  0
   -1.6919    1.7323    4.0720 H   0  0  0  0  0  0
   -3.3127    1.9640    3.3910 H   0  0  0  0  0  0
   -5.5890    3.1429   -0.7651 H   0  0  0  0  0  0
   -6.6927   -0.0827    1.8719 H   0  0  0  0  0  0
   -7.1954    2.1231    0.8372 H   0  0  0  0  0  0
    9.9507   -1.4879    0.5525 H   0  0  0  0  0  0
   10.3897   -0.3675   -0.7406 H   0  0  0  0  0  0
    9.8754    0.2535    0.8380 H   0  0  0  0  0  0
    1.6284   -0.1734    0.2672 N   0  3  0  0  0  0
    1.6470   -0.8571   -0.4765 H   0  0  0  0  0  0
  1 13  1  0  0  0
  1 23  1  0  0  0
  2 13  2  0  0  0
  3 16  2  0  0  0
  4 27  1  0  0  0
  4 28  1  0  0  0
  5 27  2  0  0  0
  6  7  1  0  0  0
  6 15  1  0  0  0
  6 16  1  0  0  0
  7  8  1  0  0  0
  7  9  1  0  0  0
  7 13  1  0  0  0
  8 10  1  0  0  0
  8 29  1  0  0  0
  8 30  1  0  0  0
  9 11  1  0  0  0
  9 31  1  0  0  0
  9 32  1  0  0  0
 10 33  1  0  0  0
 10 34  1  0  0  0
 10 61  1  0  0  0
 11 35  1  0  0  0
 11 36  1  0  0  0
 11 61  1  0  0  0
 12 14  1  0  0  0
 12 37  1  0  0  0
 12 38  1  0  0  0
 12 61  1  0  0  0
 14 17  1  0  0  0
 14 39  1  0  0  0
 14 40  1  0  0  0
 15 19  2  0  0  0
 15 20  1  0  0  0
 16 18  1  0  0  0
 17 21  1  0  0  0
 17 41  1  0  0  0
 17 42  1  0  0  0
 18 22  1  0  0  0
 18 43  1  0  0  0
 18 44  1  0  0  0
 19 24  1  0  0  0
 19 45  1  0  0  0
 20 25  2  0  0  0
 20 46  1  0  0  0
 21 27  1  0  0  0
 21 47  1  0  0  0
 21 48  1  0  0  0
 22 49  1  0  0  0
 22 50  1  0  0  0
 22 51  1  0  0  0
 23 52  1  0  0  0
 23 53  1  0  0  0
 23 54  1  0  0  0
 24 26  2  0  0  0
 24 55  1  0  0  0
 25 26  1  0  0  0
 25 56  1  0  0  0
 26 57  1  0  0  0
 28 58  1  0  0  0
 28 59  1  0  0  0
 28 60  1  0  0  0
 61 62  1  0  0  0
M  CHG  1  61   1
M  END
> <LID>
L004289

> <PC_CID>
14873783

> <Names>


> <CAS_Numbers>


$$$$
44211141
                    3D
 Structure written by MMmdl.
 63 70  0  0  1  0            999 V2000
    0.5522   -1.1049   -1.1829 O   0  0  0  0  0  0
    0.3843    2.8466   -1.2012 O   0  0  0  0  0  0
   -2.6394    2.3156   -1.0763 O   0  0  0  0  0  0
    2.8603    4.2823   -2.1760 O   0  0  0  0  0  0
    0.5633    0.9037    0.0897 C   0  0  1  0  0  0
    0.2778   -0.6070    0.1411 C   0  0  2  0  0  0
    1.3950   -1.1335    1.1013 C   0  0  1  0  0  0
   -0.2472    1.5705   -1.0173 C   0  0  1  0  0  0
    0.3747    1.5467    1.5079 C   0  0  0  0  0  0
    1.8947    1.2875   -0.3874 C   0  0  0  0  0  0
   -1.2546   -0.7729    0.5462 C   0  0  0  0  0  0
    2.8385   -0.8021    0.5381 C   0  0  0  0  0  0
    1.2765    0.8843    2.5626 C   0  0  0  0  0  0
    3.0605    0.5677   -0.1382 C   0  0  0  0  0  0
   -1.6744    1.4531   -0.6530 C   0  0  0  0  0  0
   -2.1561    0.3440    0.0030 C   0  0  0  0  0  0
    1.7164    2.4879   -1.0611 C   0  0  0  0  0  0
    1.9681   -1.2793    3.5319 C   0  0  0  0  0  0
   -3.5767    0.5433    0.0548 C   0  0  0  0  0  0
    4.2363    1.1882   -0.6142 C   0  0  0  0  0  0
    2.9087    3.0940   -1.5090 C   0  0  0  0  0  0
    0.0162   -2.3463   -1.6440 C   0  0  0  0  0  0
   -3.8292    1.7733   -0.6221 C   0  0  0  0  0  0
    4.1564    2.4466   -1.2780 C   0  0  0  0  0  0
   -4.6963   -0.1445    0.5775 C   0  0  0  0  0  0
    0.5488   -3.5712   -0.9233 C   0  0  0  0  0  0
   -5.1192    2.3058   -0.7817 C   0  0  0  0  0  0
   -5.9997    0.3774    0.4279 C   0  0  0  0  0  0
   -6.2126    1.5971   -0.2484 C   0  0  0  0  0  0
   -0.2936   -4.3329   -0.0857 C   0  0  0  0  0  0
    1.8932   -3.9603   -1.0996 C   0  0  0  0  0  0
    0.2119   -5.4625    0.5870 C   0  0  0  0  0  0
    2.3985   -5.0893   -0.4263 C   0  0  0  0  0  0
    1.5584   -5.8391    0.4192 C   0  0  0  0  0  0
    1.3050   -2.2137    1.1973 H   0  0  0  0  0  0
   -0.1268    1.0548   -1.9736 H   0  0  0  0  0  0
   -0.6540    1.4757    1.8569 H   0  0  0  0  0  0
    0.5805    2.6177    1.4822 H   0  0  0  0  0  0
   -1.3340   -0.7496    1.6321 H   0  0  0  0  0  0
   -1.6567   -1.7507    0.2974 H   0  0  0  0  0  0
    3.0762   -1.5386   -0.2283 H   0  0  0  0  0  0
    3.6039   -0.9401    1.3000 H   0  0  0  0  0  0
    2.3127    1.2002    2.4372 H   0  0  0  0  0  0
    0.9769    1.2149    3.5578 H   0  0  0  0  0  0
    1.6246   -0.9700    4.5195 H   0  0  0  0  0  0
    1.8474   -2.3612    3.4670 H   0  0  0  0  0  0
    3.0306   -1.0467    3.4636 H   0  0  0  0  0  0
    5.1941    0.7070   -0.4814 H   0  0  0  0  0  0
   -1.0726   -2.3370   -1.6680 H   0  0  0  0  0  0
    0.3113   -2.4395   -2.6894 H   0  0  0  0  0  0
    5.0649    2.9105   -1.6334 H   0  0  0  0  0  0
   -4.5520   -1.0805    1.0964 H   0  0  0  0  0  0
   -5.2673    3.2398   -1.3033 H   0  0  0  0  0  0
    1.9776    4.6052   -2.2771 H   0  0  0  0  0  0
   -6.8426   -0.1626    0.8342 H   0  0  0  0  0  0
   -7.2144    1.9865   -0.3580 H   0  0  0  0  0  0
   -1.3288   -4.0558    0.0466 H   0  0  0  0  0  0
    2.5412   -3.3888   -1.7480 H   0  0  0  0  0  0
   -0.4341   -6.0418    1.2302 H   0  0  0  0  0  0
    3.4299   -5.3809   -0.5599 H   0  0  0  0  0  0
    1.9453   -6.7060    0.9346 H   0  0  0  0  0  0
    1.1826   -0.5932    2.4800 N   0  3  2  0  0  0
    0.2209   -0.8119    2.6983 H   0  0  0  0  0  0
  1  6  1  0  0  0
  1 22  1  0  0  0
  2  8  1  0  0  0
  2 17  1  0  0  0
  3 15  1  0  0  0
  3 23  1  0  0  0
  4 21  1  0  0  0
  4 54  1  0  0  0
  5  6  1  0  0  0
  5  8  1  0  0  0
  5  9  1  0  0  0
  5 10  1  0  0  0
  6  7  1  0  0  0
  6 11  1  0  0  0
  7 12  1  0  0  0
  7 35  1  0  0  0
  7 62  1  0  0  0
  8 15  1  0  0  0
  8 36  1  0  0  0
  9 13  1  0  0  0
  9 37  1  0  0  0
  9 38  1  0  0  0
 10 14  2  0  0  0
 10 17  1  0  0  0
 11 16  1  0  0  0
 11 39  1  0  0  0
 11 40  1  0  0  0
 12 14  1  0  0  0
 12 41  1  0  0  0
 12 42  1  0  0  0
 13 43  1  0  0  0
 13 44  1  0  0  0
 13 62  1  0  0  0
 14 20  1  0  0  0
 15 16  2  0  0  0
 16 19  1  0  0  0
 17 21  2  0  0  0
 18 45  1  0  0  0
 18 46  1  0  0  0
 18 47  1  0  0  0
 18 62  1  0  0  0
 19 23  1  0  0  0
 19 25  2  0  0  0
 20 24  2  0  0  0
 20 48  1  0  0  0
 21 24  1  0  0  0
 22 26  1  0  0  0
 22 49  1  0  0  0
 22 50  1  0  0  0
 23 27  2  0  0  0
 24 51  1  0  0  0
 25 28  1  0  0  0
 25 52  1  0  0  0
 26 30  2  0  0  0
 26 31  1  0  0  0
 27 29  1  0  0  0
 27 53  1  0  0  0
 28 29  2  0  0  0
 28 55  1  0  0  0
 29 56  1  0  0  0
 30 32  1  0  0  0
 30 57  1  0  0  0
 31 33  2  0  0  0
 31 58  1  0  0  0
 32 34  2  0  0  0
 32 59  1  0  0  0
 33 34  1  0  0  0
 33 60  1  0  0  0
 34 61  1  0  0  0
 62 63  1  0  0  0
M  CHG  1  62   1
M  END
> <LID>
L009151

> <PC_CID>
44211141

> <Names>


> <CAS_Numbers>


$$$$
44211140
                    3D
 Structure written by MMmdl.
 53 59  0  0  1  0            999 V2000
   -0.0528    1.8932   -1.4981 O   0  0  0  0  0  0
   -0.5741   -2.4372   -0.7617 O   0  0  0  0  0  0
    2.5708    0.5429   -1.3574 O   0  0  0  0  0  0
   -0.5965    4.5447   -0.3098 O   0  0  0  0  0  0
   -1.1328   -0.1226   -0.7671 C   0  0  1  0  0  0
   -0.8615   -1.3608    0.1455 C   0  0  1  0  0  0
   -2.1975   -1.6114    0.9078 C   0  0  1  0  0  0
    0.1006    0.4628   -1.5333 C   0  0  2  0  0  0
   -2.2796   -0.4406   -1.7637 C   0  0  0  0  0  0
   -1.5030    1.0523    0.0891 C   0  0  0  0  0  0
    0.3649   -1.1346    1.0902 C   0  0  0  0  0  0
   -2.6320   -0.3870    1.7765 C   0  0  0  0  0  0
   -3.5590   -0.9351   -1.0666 C   0  0  0  0  0  0
   -2.2883    1.0099    1.2520 C   0  0  0  0  0  0
    1.3778    0.1304   -0.8321 C   0  0  0  0  0  0
    1.5280   -0.5824    0.3262 C   0  0  0  0  0  0
   -0.8854    2.1659   -0.4496 C   0  0  0  0  0  0
   -4.4529   -2.6223    0.5066 C   0  0  0  0  0  0
    2.9397   -0.6341    0.5740 C   0  0  0  0  0  0
   -2.5396    2.2546    1.8670 C   0  0  0  0  0  0
   -1.1574    3.4000    0.1746 C   0  0  0  0  0  0
    3.5468    0.0775   -0.4964 C   0  0  0  0  0  0
   -0.2930   -3.7290   -0.2336 C   0  0  0  0  0  0
   -1.9955    3.4426    1.3170 C   0  0  0  0  0  0
    3.8005   -1.1817    1.5536 C   0  0  0  0  0  0
    4.9363    0.2495   -0.6106 C   0  0  0  0  0  0
    5.1998   -1.0198    1.4570 C   0  0  0  0  0  0
    5.7679   -0.3073    0.3797 C   0  0  0  0  0  0
   -2.0707   -2.4579    1.5828 H   0  0  0  0  0  0
    0.1481    0.1036   -2.5619 H   0  0  0  0  0  0
   -1.9486   -1.2022   -2.4708 H   0  0  0  0  0  0
   -2.5127    0.4375   -2.3676 H   0  0  0  0  0  0
    0.6408   -2.0387    1.6301 H   0  0  0  0  0  0
    0.1093   -0.4205    1.8719 H   0  0  0  0  0  0
   -2.1292   -0.4676    2.7408 H   0  0  0  0  0  0
   -3.6938   -0.4168    2.0159 H   0  0  0  0  0  0
   -4.0741   -0.1101   -0.5735 H   0  0  0  0  0  0
   -4.2512   -1.3213   -1.8157 H   0  0  0  0  0  0
   -5.0753   -3.0550   -0.2772 H   0  0  0  0  0  0
   -4.1823   -3.4266    1.1913 H   0  0  0  0  0  0
   -5.0601   -1.8977    1.0489 H   0  0  0  0  0  0
   -3.1252    2.3010    2.7734 H   0  0  0  0  0  0
    0.6609   -3.7614    0.2911 H   0  0  0  0  0  0
   -0.2197   -4.4341   -1.0613 H   0  0  0  0  0  0
   -1.0775   -4.0921    0.4289 H   0  0  0  0  0  0
   -2.1920    4.3891    1.7992 H   0  0  0  0  0  0
    3.3816   -1.7294    2.3846 H   0  0  0  0  0  0
    5.3558    0.7978   -1.4411 H   0  0  0  0  0  0
   -0.0457    4.3864   -1.0617 H   0  0  0  0  0  0
    5.8419   -1.4450    2.2147 H   0  0  0  0  0  0
    6.8397   -0.1889    0.3151 H   0  0  0  0  0  0
   -3.2451   -2.0019   -0.0849 N   0  3  2  0  0  0
   -2.8137   -2.7386   -0.6263 H   0  0  0  0  0  0
  1  8  1  0  0  0
  1 17  1  0  0  0
  2  6  1  0  0  0
  2 23  1  0  0  0
  3 15  1  0  0  0
  3 22  1  0  0  0
  4 21  1  0  0  0
  4 49  1  0  0  0
  5  6  1  0  0  0
  5  8  1  0  0  0
  5  9  1  0  0  0
  5 10  1  0  0  0
  6  7  1  0  0  0
  6 11  1  0  0  0
  7 12  1  0  0  0
  7 29  1  0  0  0
  7 52  1  0  0  0
  8 15  1  0  0  0
  8 30  1  0  0  0
  9 13  1  0  0  0
  9 31  1  0  0  0
  9 32  1  0  0  0
 10 14  2  0  0  0
 10 17  1  0  0  0
 11 16  1  0  0  0
 11 33  1  0  0  0
 11 34  1  0  0  0
 12 14  1  0  0  0
 12 35  1  0  0  0
 12 36  1  0  0  0
 13 37  1  0  0  0
 13 38  1  0  0  0
 13 52  1  0  0  0
 14 20  1  0  0  0
 15 16  2  0  0  0
 16 19  1  0  0  0
 17 21  2  0  0  0
 18 39  1  0  0  0
 18 40  1  0  0  0
 18 41  1  0  0  0
 18 52  1  0  0  0
 19 22  1  0  0  0
 19 25  2  0  0  0
 20 24  2  0  0  0
 20 42  1  0  0  0
 21 24  1  0  0  0
 22 26  2  0  0  0
 23 43  1  0  0  0
 23 44  1  0  0  0
 23 45  1  0  0  0
 24 46  1  0  0  0
 25 27  1  0  0  0
 25 47  1  0  0  0
 26 28  1  0  0  0
 26 48  1  0  0  0
 27 28  2  0  0  0
 27 50  1  0  0  0
 28 51  1  0  0  0
 52 53  1  0  0  0
M  CHG  1  52   1
M  END
> <LID>
L009150

> <PC_CID>
44211140

> <Names>


> <CAS_Numbers>


$$$$
44215689
                    3D
 Structure written by MMmdl.
 67 72  0  0  1  0            999 V2000
   -1.1918    4.6549   -2.7673 O   0  0  0  0  0  0
   -4.1814    1.7353   -0.6601 O   0  0  0  0  0  0
   -1.8527    0.3831   -0.2190 O   0  0  0  0  0  0
   -6.3321   -0.2039   -1.3307 O   0  0  0  0  0  0
   -3.1665    3.1705   -2.2543 C   0  0  1  0  0  0
   -1.9204    3.4672   -3.1337 C   0  0  1  0  0  0
   -2.4897    3.8997   -4.5172 C   0  0  1  0  0  0
   -2.9422    2.4336   -0.8957 C   0  0  2  0  0  0
   -3.9309    4.5040   -2.0502 C   0  0  0  0  0  0
   -4.0986    2.1874   -2.9129 C   0  0  0  0  0  0
   -0.9785    2.2377   -3.2170 C   0  0  0  0  0  0
   -3.3771    2.8173   -5.1984 C   0  0  0  0  0  0
   -4.3496    5.1465   -3.3895 C   0  0  0  0  0  0
   -4.3156    2.0295   -4.2895 C   0  0  0  0  0  0
   -0.6082    1.6106   -1.8555 C   0  0  0  0  0  0
   -1.8120    1.3796   -0.9381 C   0  0  0  0  0  0
   -4.6972    1.4645   -1.8975 C   0  0  0  0  0  0
   -3.5330    5.8960   -5.6238 C   0  0  0  0  0  0
   -5.3004    1.0872   -4.6533 C   0  0  0  0  0  0
   -5.6884    0.5367   -2.2787 C   0  0  0  0  0  0
   -0.4614    4.7259   -1.5544 C   0  0  0  0  0  0
   -5.9949    0.3621   -3.6522 C   0  0  0  0  0  0
   -3.5146    7.4272   -5.4727 C   0  0  0  0  0  0
   -0.2636    6.2038   -1.1914 C   0  0  0  0  0  0
   -2.1304    7.9823   -5.1088 C   0  0  0  0  0  0
    0.4475    6.4107    0.1573 C   0  0  0  0  0  0
   -0.3045    5.7900    1.3224 C   0  0  0  0  0  0
   -1.4694    6.4095    1.8220 C   0  0  0  0  0  0
    0.1425    4.5796    1.8946 C   0  0  0  0  0  0
   -2.1846    5.8210    2.8831 C   0  0  0  0  0  0
   -0.5741    3.9909    2.9545 C   0  0  0  0  0  0
   -1.7378    4.6111    3.4487 C   0  0  0  0  0  0
   -1.6448    4.0994   -5.1785 H   0  0  0  0  0  0
   -2.7439    3.1310   -0.0821 H   0  0  0  0  0  0
   -3.3139    5.2056   -1.4884 H   0  0  0  0  0  0
   -4.8193    4.3467   -1.4370 H   0  0  0  0  0  0
   -1.4452    1.4532   -3.8121 H   0  0  0  0  0  0
   -0.0692    2.5072   -3.7548 H   0  0  0  0  0  0
   -3.9580    3.2399   -6.0177 H   0  0  0  0  0  0
   -2.7237    2.0822   -5.6688 H   0  0  0  0  0  0
   -5.1814    4.5989   -3.8334 H   0  0  0  0  0  0
   -4.7229    6.1513   -3.1947 H   0  0  0  0  0  0
    0.1208    2.2103   -1.3168 H   0  0  0  0  0  0
   -0.1213    0.6507   -2.0296 H   0  0  0  0  0  0
   -2.8089    5.6213   -6.3920 H   0  0  0  0  0  0
   -4.5058    5.5654   -5.9905 H   0  0  0  0  0  0
   -5.5148    0.9052   -5.6962 H   0  0  0  0  0  0
   -0.9935    4.2259   -0.7515 H   0  0  0  0  0  0
    0.5095    4.2470   -1.6763 H   0  0  0  0  0  0
   -6.7458   -0.3560   -3.9474 H   0  0  0  0  0  0
   -3.8287    7.8729   -6.4172 H   0  0  0  0  0  0
   -4.2478    7.7531   -4.7353 H   0  0  0  0  0  0
    0.3066    6.6958   -1.9799 H   0  0  0  0  0  0
   -1.2346    6.6997   -1.1645 H   0  0  0  0  0  0
   -2.1516    9.0713   -5.0613 H   0  0  0  0  0  0
   -1.7941    7.6181   -4.1376 H   0  0  0  0  0  0
   -1.3836    7.6984   -5.8509 H   0  0  0  0  0  0
   -6.9651   -0.8050   -1.6919 H   0  0  0  0  0  0
    1.4552    5.9958    0.1114 H   0  0  0  0  0  0
    0.5677    7.4776    0.3492 H   0  0  0  0  0  0
   -1.8204    7.3345    1.3884 H   0  0  0  0  0  0
    1.0303    4.0937    1.5169 H   0  0  0  0  0  0
   -3.0771    6.2967    3.2621 H   0  0  0  0  0  0
   -0.2318    3.0624    3.3875 H   0  0  0  0  0  0
   -2.2872    4.1591    4.2614 H   0  0  0  0  0  0
   -3.2133    5.2021   -4.3497 N   0  3  2  0  0  0
   -2.5222    5.7909   -3.9048 H   0  0  0  0  0  0
  1  6  1  0  0  0
  1 21  1  0  0  0
  2  8  1  0  0  0
  2 17  1  0  0  0
  3 16  2  0  0  0
  4 20  1  0  0  0
  4 58  1  0  0  0
  5  6  1  0  0  0
  5  8  1  0  0  0
  5  9  1  0  0  0
  5 10  1  0  0  0
  6  7  1  0  0  0
  6 11  1  0  0  0
  7 12  1  0  0  0
  7 33  1  0  0  0
  7 66  1  0  0  0
  8 16  1  0  0  0
  8 34  1  0  0  0
  9 13  1  0  0  0
  9 35  1  0  0  0
  9 36  1  0  0  0
 10 14  2  0  0  0
 10 17  1  0  0  0
 11 15  1  0  0  0
 11 37  1  0  0  0
 11 38  1  0  0  0
 12 14  1  0  0  0
 12 39  1  0  0  0
 12 40  1  0  0  0
 13 41  1  0  0  0
 13 42  1  0  0  0
 13 66  1  0  0  0
 14 19  1  0  0  0
 15 16  1  0  0  0
 15 43  1  0  0  0
 15 44  1  0  0  0
 17 20  2  0  0  0
 18 23  1  0  0  0
 18 45  1  0  0  0
 18 46  1  0  0  0
 18 66  1  0  0  0
 19 22  2  0  0  0
 19 47  1  0  0  0
 20 22  1  0  0  0
 21 24  1  0  0  0
 21 48  1  0  0  0
 21 49  1  0  0  0
 22 50  1  0  0  0
 23 25  1  0  0  0
 23 51  1  0  0  0
 23 52  1  0  0  0
 24 26  1  0  0  0
 24 53  1  0  0  0
 24 54  1  0  0  0
 25 55  1  0  0  0
 25 56  1  0  0  0
 25 57  1  0  0  0
 26 27  1  0  0  0
 26 59  1  0  0  0
 26 60  1  0  0  0
 27 28  2  0  0  0
 27 29  1  0  0  0
 28 30  1  0  0  0
 28 61  1  0  0  0
 29 31  2  0  0  0
 29 62  1  0  0  0
 30 32  2  0  0  0
 30 63  1  0  0  0
 31 32  1  0  0  0
 31 64  1  0  0  0
 32 65  1  0  0  0
 66 67  1  0  0  0
M  CHG  1  66   1
M  END
> <LID>
L022102

> <PC_CID>
44215689

> <Names>


> <CAS_Numbers>


$$$$
11397318
                    3D
 Structure written by MMmdl.
 69 72  0  0  1  0            999 V2000
    0.3614    3.6443    0.3540 F   0  0  0  0  0  0
   -1.9293    0.5840    1.2627 O   0  0  0  0  0  0
    3.0175    2.5381   -1.6931 O   0  0  0  0  0  0
    4.2876    0.6500   -1.7717 N   0  0  0  0  0  0
   -2.0105   -2.8366   -0.5422 C   0  0  0  0  0  0
   -0.8753   -3.8324   -0.7753 C   0  0  0  0  0  0
   -3.2961   -3.5548   -0.1339 C   0  0  0  0  0  0
   -0.6767   -4.7451    0.4452 C   0  0  0  0  0  0
   -3.0529   -4.4877    1.0661 C   0  0  0  0  0  0
   -1.8898   -1.4879   -0.6695 C   0  0  0  0  0  0
   -0.5921   -0.8466   -0.9599 C   0  0  0  0  0  0
   -3.0476   -0.5773   -0.5159 C   0  0  0  0  0  0
   -3.0345    0.4595    0.4511 C   0  0  0  0  0  0
    0.4776   -0.9520   -0.0438 C   0  0  0  0  0  0
   -0.4331   -0.0439   -2.1093 C   0  0  0  0  0  0
   -4.1569   -0.7012   -1.3832 C   0  0  0  0  0  0
    1.8500    0.5169   -1.4334 C   0  0  0  0  0  0
    1.6878   -0.2737   -0.2756 C   0  0  0  0  0  0
    0.7776    0.6372   -2.3423 C   0  0  0  0  0  0
   -4.1500    1.3243    0.5628 C   0  0  0  0  0  0
   -5.2582    0.1668   -1.2709 C   0  0  0  0  0  0
    3.1063    1.3103   -1.6506 C   0  0  0  0  0  0
   -5.2568    1.1769   -0.2933 C   0  0  0  0  0  0
    5.5532    1.3951   -1.8379 C   0  0  0  0  0  0
    4.4279   -0.8048   -1.9509 C   0  0  0  0  0  0
   -1.5480    1.9006    1.6414 C   0  0  0  0  0  0
   -0.0759    1.9533    2.0078 C   0  0  0  0  0  0
    6.0899    1.7030   -0.4327 C   0  0  0  0  0  0
    4.1286   -1.2279   -3.3964 C   0  0  0  0  0  0
    0.8102    2.8264    1.3362 C   0  0  0  0  0  0
    0.4175    1.1101    3.0258 C   0  0  0  0  0  0
    2.1771    2.8441    1.6769 C   0  0  0  0  0  0
    1.7848    1.1289    3.3637 C   0  0  0  0  0  0
    2.6656    1.9946    2.6877 C   0  0  0  0  0  0
    0.0663   -3.3556   -1.0399 H   0  0  0  0  0  0
   -1.1428   -4.4410   -1.6401 H   0  0  0  0  0  0
   -3.6528   -4.1321   -0.9878 H   0  0  0  0  0  0
   -4.0961   -2.8653    0.1287 H   0  0  0  0  0  0
    0.0856   -5.4961    0.2363 H   0  0  0  0  0  0
   -0.3250   -4.1625    1.2980 H   0  0  0  0  0  0
   -2.8208   -3.8993    1.9552 H   0  0  0  0  0  0
   -3.9545   -5.0584    1.2904 H   0  0  0  0  0  0
    0.3605   -1.5328    0.8593 H   0  0  0  0  0  0
   -1.2496    0.0685   -2.8077 H   0  0  0  0  0  0
   -4.1657   -1.4702   -2.1419 H   0  0  0  0  0  0
    2.4825   -0.3435    0.4533 H   0  0  0  0  0  0
    0.8756    1.2626   -3.2180 H   0  0  0  0  0  0
   -4.1707    2.1072    1.3060 H   0  0  0  0  0  0
   -6.1031    0.0578   -1.9349 H   0  0  0  0  0  0
   -6.1026    1.8426   -0.2026 H   0  0  0  0  0  0
    6.3001    0.8293   -2.3965 H   0  0  0  0  0  0
    5.4307    2.3234   -2.3986 H   0  0  0  0  0  0
    5.4423   -1.1135   -1.6947 H   0  0  0  0  0  0
    3.7987   -1.3649   -1.2630 H   0  0  0  0  0  0
   -1.7525    2.6074    0.8357 H   0  0  0  0  0  0
   -2.1333    2.2150    2.5062 H   0  0  0  0  0  0
    7.0355    2.2424   -0.4891 H   0  0  0  0  0  0
    5.3907    2.3194    0.1335 H   0  0  0  0  0  0
    6.2630    0.7870    0.1328 H   0  0  0  0  0  0
    4.2754   -2.3006   -3.5231 H   0  0  0  0  0  0
    3.0992   -1.0016   -3.6752 H   0  0  0  0  0  0
    4.7865   -0.7179   -4.1007 H   0  0  0  0  0  0
   -0.2528    0.4395    3.5433 H   0  0  0  0  0  0
    2.8524    3.5063    1.1553 H   0  0  0  0  0  0
    2.1580    0.4773    4.1401 H   0  0  0  0  0  0
    3.7148    2.0076    2.9436 H   0  0  0  0  0  0
   -1.9391   -5.4251    0.8060 N   0  3  0  0  0  0
   -1.7854   -5.9902    1.6292 H   0  0  0  0  0  0
   -2.2042   -6.0307    0.0422 H   0  0  0  0  0  0
  1 30  1  0  0  0
  2 13  1  0  0  0
  2 26  1  0  0  0
  3 22  2  0  0  0
  4 22  1  0  0  0
  4 24  1  0  0  0
  4 25  1  0  0  0
  5  6  1  0  0  0
  5  7  1  0  0  0
  5 10  2  0  0  0
  6  8  1  0  0  0
  6 35  1  0  0  0
  6 36  1  0  0  0
  7  9  1  0  0  0
  7 37  1  0  0  0
  7 38  1  0  0  0
  8 39  1  0  0  0
  8 40  1  0  0  0
  8 67  1  0  0  0
  9 41  1  0  0  0
  9 42  1  0  0  0
  9 67  1  0  0  0
 10 11  1  0  0  0
 10 12  1  0  0  0
 11 14  2  0  0  0
 11 15  1  0  0  0
 12 13  1  0  0  0
 12 16  2  0  0  0
 13 20  2  0  0  0
 14 18  1  0  0  0
 14 43  1  0  0  0
 15 19  2  0  0  0
 15 44  1  0  0  0
 16 21  1  0  0  0
 16 45  1  0  0  0
 17 18  2  0  0  0
 17 19  1  0  0  0
 17 22  1  0  0  0
 18 46  1  0  0  0
 19 47  1  0  0  0
 20 23  1  0  0  0
 20 48  1  0  0  0
 21 23  2  0  0  0
 21 49  1  0  0  0
 23 50  1  0  0  0
 24 28  1  0  0  0
 24 51  1  0  0  0
 24 52  1  0  0  0
 25 29  1  0  0  0
 25 53  1  0  0  0
 25 54  1  0  0  0
 26 27  1  0  0  0
 26 55  1  0  0  0
 26 56  1  0  0  0
 27 30  1  0  0  0
 27 31  2  0  0  0
 28 57  1  0  0  0
 28 58  1  0  0  0
 28 59  1  0  0  0
 29 60  1  0  0  0
 29 61  1  0  0  0
 29 62  1  0  0  0
 30 32  2  0  0  0
 31 33  1  0  0  0
 31 63  1  0  0  0
 32 34  1  0  0  0
 32 64  1  0  0  0
 33 34  2  0  0  0
 33 65  1  0  0  0
 34 66  1  0  0  0
 67 68  1  0  0  0
 67 69  1  0  0  0
M  CHG  1  67   1
M  END
> <LID>
L023471

> <PC_CID>
11397318

> <Names>


> <CAS_Numbers>


$$$$
12132825
                    3D
 Structure written by MMmdl.
 85 89  0  0  1  0            999 V2000
   -7.1366   -3.8651   -1.1845 O   0  0  0  0  0  0
    2.2175    2.5455    1.6268 O   0  0  0  0  0  0
    5.3093   -3.5103   -1.0634 O   0  0  0  0  0  0
   -5.0564   -3.2317   -0.6427 N   0  0  0  0  0  0
    6.2505   -2.4939    0.7460 N   0  0  0  0  0  0
   -4.5223   -0.8461   -0.0325 C   0  0  0  0  0  0
   -4.2542   -0.3017   -1.4601 C   0  0  0  0  0  0
   -3.5524   -0.1222    0.9524 C   0  0  0  0  0  0
   -4.1443   -2.3580    0.0655 C   0  0  0  0  0  0
   -2.7642   -0.2961   -1.8574 C   0  0  0  0  0  0
   -2.0793   -0.1563    0.4998 C   0  0  0  0  0  0
   -6.0455   -0.6954    0.2877 C   0  0  0  0  0  0
   -0.5132    0.5360   -1.2948 C   0  0  0  0  0  0
   -6.8936   -1.8242    0.0432 C   0  0  0  0  0  0
   -6.6748    0.5054    0.7645 C   0  0  0  0  0  0
   -6.3785   -3.0582   -0.6492 C   0  0  0  0  0  0
    0.2124    1.7258   -0.6342 C   0  0  0  0  0  0
   -8.2632   -1.7903    0.3844 C   0  0  0  0  0  0
    1.6656    1.9143   -1.1311 C   0  0  1  0  0  0
   -8.0447    0.5027    1.1056 C   0  0  0  0  0  0
   -5.9953    1.8587    0.9026 C   0  0  0  0  0  0
   -8.8346   -0.6397    0.9372 C   0  0  0  0  0  0
    2.2768    3.2402   -0.6726 C   0  0  0  0  0  0
    2.6041    0.7308   -0.8867 C   0  0  0  0  0  0
    2.5384    3.5124    0.6968 C   0  0  0  0  0  0
    3.6441    0.4817   -1.8084 C   0  0  0  0  0  0
    2.4678   -0.1181    0.2361 C   0  0  0  0  0  0
    2.5905    4.2109   -1.6507 C   0  0  0  0  0  0
    4.5357   -0.5900   -1.6114 C   0  0  0  0  0  0
    3.3593   -1.1891    0.4347 C   0  0  0  0  0  0
    3.1107    4.7614    1.0516 C   0  0  0  0  0  0
    3.1581    5.4438   -1.2849 C   0  0  0  0  0  0
    4.4084   -1.4205   -0.4792 C   0  0  0  0  0  0
    3.4180    5.7186    0.0677 C   0  0  0  0  0  0
    5.3622   -2.5613   -0.2802 C   0  0  0  0  0  0
    2.5845    2.7547    2.9823 C   0  0  0  0  0  0
    7.1895   -3.5985    0.9911 C   0  0  0  0  0  0
    6.4585   -1.3180    1.6082 C   0  0  0  0  0  0
    8.4147   -3.5248    0.0665 C   0  0  0  0  0  0
    5.8088   -1.4823    2.9916 C   0  0  0  0  0  0
   -4.6291    0.7173   -1.5429 H   0  0  0  0  0  0
   -4.8195   -0.8760   -2.1949 H   0  0  0  0  0  0
   -3.6481   -0.5367    1.9568 H   0  0  0  0  0  0
   -3.7561    0.9324    1.0526 H   0  0  0  0  0  0
   -4.1604   -2.6760    1.1095 H   0  0  0  0  0  0
   -3.1414   -2.5748   -0.2954 H   0  0  0  0  0  0
   -2.3906   -1.3121   -1.9880 H   0  0  0  0  0  0
   -2.6674    0.1899   -2.8292 H   0  0  0  0  0  0
   -1.4916    0.4183    1.2147 H   0  0  0  0  0  0
   -1.6714   -1.1665    0.5273 H   0  0  0  0  0  0
    0.0024   -0.4054   -1.1019 H   0  0  0  0  0  0
   -0.4794    0.6840   -2.3752 H   0  0  0  0  0  0
   -4.6752   -4.0461   -1.1019 H   0  0  0  0  0  0
   -0.3478    2.6334   -0.8636 H   0  0  0  0  0  0
    0.1918    1.6376    0.4499 H   0  0  0  0  0  0
   -8.8958   -2.6495    0.2122 H   0  0  0  0  0  0
    1.5816    1.9792   -2.2171 H   0  0  0  0  0  0
   -8.5117    1.3989    1.4878 H   0  0  0  0  0  0
   -6.7297    2.6643    0.8706 H   0  0  0  0  0  0
   -5.4854    1.9392    1.8626 H   0  0  0  0  0  0
   -5.3040    2.0602    0.0872 H   0  0  0  0  0  0
   -9.8833   -0.6212    1.1949 H   0  0  0  0  0  0
    3.7654    1.1180   -2.6729 H   0  0  0  0  0  0
    1.6830    0.0407    0.9594 H   0  0  0  0  0  0
    2.3989    4.0157   -2.6957 H   0  0  0  0  0  0
    5.3256   -0.7647   -2.3278 H   0  0  0  0  0  0
    3.2274   -1.8360    1.2888 H   0  0  0  0  0  0
    3.3243    5.0146    2.0786 H   0  0  0  0  0  0
    3.3941    6.1776   -2.0416 H   0  0  0  0  0  0
    3.8536    6.6651    0.3523 H   0  0  0  0  0  0
    2.3133    1.8749    3.5657 H   0  0  0  0  0  0
    3.6605    2.8999    3.0875 H   0  0  0  0  0  0
    2.0583    3.6086    3.4106 H   0  0  0  0  0  0
    7.5266   -3.5832    2.0279 H   0  0  0  0  0  0
    6.6868   -4.5594    0.8671 H   0  0  0  0  0  0
    7.5305   -1.1646    1.7392 H   0  0  0  0  0  0
    6.1057   -0.3981    1.1415 H   0  0  0  0  0  0
    9.1070   -4.3398    0.2783 H   0  0  0  0  0  0
    8.1295   -3.6003   -0.9832 H   0  0  0  0  0  0
    8.9562   -2.5880    0.1998 H   0  0  0  0  0  0
    5.9915   -0.6008    3.6063 H   0  0  0  0  0  0
    4.7308   -1.6139    2.9239 H   0  0  0  0  0  0
    6.2131   -2.3417    3.5263 H   0  0  0  0  0  0
   -1.9292    0.4230   -0.8614 N   0  3  0  0  0  0
   -2.2917    1.3652   -0.8229 H   0  0  0  0  0  0
  1 16  2  0  0  0
  2 25  1  0  0  0
  2 36  1  0  0  0
  3 35  2  0  0  0
  4  9  1  0  0  0
  4 16  1  0  0  0
  4 53  1  0  0  0
  5 35  1  0  0  0
  5 37  1  0  0  0
  5 38  1  0  0  0
  6  7  1  0  0  0
  6  8  1  0  0  0
  6  9  1  0  0  0
  6 12  1  0  0  0
  7 10  1  0  0  0
  7 41  1  0  0  0
  7 42  1  0  0  0
  8 11  1  0  0  0
  8 43  1  0  0  0
  8 44  1  0  0  0
  9 45  1  0  0  0
  9 46  1  0  0  0
 10 47  1  0  0  0
 10 48  1  0  0  0
 10 84  1  0  0  0
 11 49  1  0  0  0
 11 50  1  0  0  0
 11 84  1  0  0  0
 12 14  1  0  0  0
 12 15  2  0  0  0
 13 17  1  0  0  0
 13 51  1  0  0  0
 13 52  1  0  0  0
 13 84  1  0  0  0
 14 16  1  0  0  0
 14 18  2  0  0  0
 15 20  1  0  0  0
 15 21  1  0  0  0
 17 19  1  0  0  0
 17 54  1  0  0  0
 17 55  1  0  0  0
 18 22  1  0  0  0
 18 56  1  0  0  0
 19 23  1  0  0  0
 19 24  1  0  0  0
 19 57  1  0  0  0
 20 22  2  0  0  0
 20 58  1  0  0  0
 21 59  1  0  0  0
 21 60  1  0  0  0
 21 61  1  0  0  0
 22 62  1  0  0  0
 23 25  1  0  0  0
 23 28  2  0  0  0
 24 26  2  0  0  0
 24 27  1  0  0  0
 25 31  2  0  0  0
 26 29  1  0  0  0
 26 63  1  0  0  0
 27 30  2  0  0  0
 27 64  1  0  0  0
 28 32  1  0  0  0
 28 65  1  0  0  0
 29 33  2  0  0  0
 29 66  1  0  0  0
 30 33  1  0  0  0
 30 67  1  0  0  0
 31 34  1  0  0  0
 31 68  1  0  0  0
 32 34  2  0  0  0
 32 69  1  0  0  0
 33 35  1  0  0  0
 34 70  1  0  0  0
 36 71  1  0  0  0
 36 72  1  0  0  0
 36 73  1  0  0  0
 37 39  1  0  0  0
 37 74  1  0  0  0
 37 75  1  0  0  0
 38 40  1  0  0  0
 38 76  1  0  0  0
 38 77  1  0  0  0
 39 78  1  0  0  0
 39 79  1  0  0  0
 39 80  1  0  0  0
 40 81  1  0  0  0
 40 82  1  0  0  0
 40 83  1  0  0  0
 84 85  1  0  0  0
M  CHG  1  84   1
M  END
> <LID>
L020888

> <PC_CID>
12132825

> <Names>


> <CAS_Numbers>


$$$$
14348736
                    3D
 Structure written by MMmdl.
 66 69  0  0  1  0            999 V2000
    2.1487   -3.1004    0.8180 O   0  0  0  0  0  0
   -5.8656   -0.9198    1.6904 O   0  0  0  0  0  0
    2.9385   -1.0271    0.2482 N   0  0  0  0  0  0
   -5.1317   -0.5093   -0.4497 N   0  0  0  0  0  0
   -5.6932    0.0775   -1.5779 N   0  0  0  0  0  0
   -7.1068    0.0740    0.0238 N   0  0  0  0  0  0
   -6.8561    0.4212   -1.2990 N   0  0  0  0  0  0
    1.6073   -0.3228    0.1467 C   0  0  0  0  0  0
    0.7858   -0.4776    1.4713 C   0  0  0  0  0  0
    0.7161   -1.0158   -0.9365 C   0  0  0  0  0  0
   -0.6251    0.1355    1.3706 C   0  0  0  0  0  0
   -0.7070   -0.4229   -1.0229 C   0  0  0  0  0  0
    1.7937    1.1939   -0.1767 C   0  0  0  0  0  0
   -2.8077   -0.0156    0.2370 C   0  0  0  0  0  0
    4.1133   -0.2912   -0.0920 C   0  0  0  0  0  0
    3.0927   -2.3455    0.5846 C   0  0  0  0  0  0
    1.7953    1.6756   -1.5126 C   0  0  0  0  0  0
    2.0409    2.1354    0.8570 C   0  0  0  0  0  0
   -3.7606   -1.0035   -0.4624 C   0  0  0  0  0  0
    4.5158   -2.9443    0.6607 C   0  0  0  0  0  0
    1.9950    3.0395   -1.7985 C   0  0  0  0  0  0
    2.2410    3.4995    0.5728 C   0  0  0  0  0  0
    4.8503    0.3752    0.9123 C   0  0  0  0  0  0
    4.5365   -0.2196   -1.4378 C   0  0  0  0  0  0
    2.2129    3.9552   -0.7557 C   0  0  0  0  0  0
    4.5505   -4.4304    1.0561 C   0  0  0  0  0  0
    6.0012    1.1110    0.5703 C   0  0  0  0  0  0
    5.6879    0.5171   -1.7759 C   0  0  0  0  0  0
   -6.0215   -0.5012    0.5443 C   0  0  0  0  0  0
    6.4194    1.1822   -0.7728 C   0  0  0  0  0  0
   -8.3899    0.3733    0.6472 C   0  0  0  0  0  0
   -8.3286    1.6782    1.4513 C   0  0  0  0  0  0
    1.3195   -0.0666    2.3265 H   0  0  0  0  0  0
    0.6314   -1.5207    1.7354 H   0  0  0  0  0  0
    0.5874   -2.0750   -0.7238 H   0  0  0  0  0  0
    1.1964   -1.0005   -1.9139 H   0  0  0  0  0  0
   -1.1386   -0.0105    2.3218 H   0  0  0  0  0  0
   -0.5820    1.2126    1.2052 H   0  0  0  0  0  0
   -0.6857    0.6146   -1.3564 H   0  0  0  0  0  0
   -1.2624   -0.9747   -1.7801 H   0  0  0  0  0  0
   -3.1651    0.1363    1.2567 H   0  0  0  0  0  0
   -2.8394    0.9619   -0.2472 H   0  0  0  0  0  0
    1.6563    1.0132   -2.3512 H   0  0  0  0  0  0
    2.1010    1.8325    1.8896 H   0  0  0  0  0  0
   -3.4634   -1.1741   -1.4970 H   0  0  0  0  0  0
   -3.7287   -1.9744    0.0346 H   0  0  0  0  0  0
    5.0059   -2.8328   -0.3070 H   0  0  0  0  0  0
    5.1030   -2.3811    1.3865 H   0  0  0  0  0  0
    1.9887    3.3819   -2.8229 H   0  0  0  0  0  0
    2.4257    4.1962    1.3772 H   0  0  0  0  0  0
    4.5309    0.3270    1.9432 H   0  0  0  0  0  0
    3.9766   -0.7248   -2.2113 H   0  0  0  0  0  0
    2.3703    5.0011   -0.9749 H   0  0  0  0  0  0
    5.5777   -4.7928    1.0980 H   0  0  0  0  0  0
    4.1052   -4.5926    2.0384 H   0  0  0  0  0  0
    4.0141   -5.0480    0.3347 H   0  0  0  0  0  0
    6.5626    1.6225    1.3382 H   0  0  0  0  0  0
    6.0094    0.5734   -2.8055 H   0  0  0  0  0  0
    7.3017    1.7479   -1.0338 H   0  0  0  0  0  0
   -9.1602    0.4457   -0.1217 H   0  0  0  0  0  0
   -8.6778   -0.4534    1.2983 H   0  0  0  0  0  0
   -9.2946    1.8987    1.9057 H   0  0  0  0  0  0
   -7.5919    1.6152    2.2529 H   0  0  0  0  0  0
   -8.0606    2.5214    0.8140 H   0  0  0  0  0  0
   -1.4080   -0.5094    0.2856 N   0  3  0  0  0  0
   -1.4583   -1.4892    0.5270 H   0  0  0  0  0  0
  1 16  2  0  0  0
  2 29  2  0  0  0
  3  8  1  0  0  0
  3 15  1  0  0  0
  3 16  1  0  0  0
  4  5  1  0  0  0
  4 19  1  0  0  0
  4 29  1  0  0  0
  5  7  2  0  0  0
  6  7  1  0  0  0
  6 29  1  0  0  0
  6 31  1  0  0  0
  8  9  1  0  0  0
  8 10  1  0  0  0
  8 13  1  0  0  0
  9 11  1  0  0  0
  9 33  1  0  0  0
  9 34  1  0  0  0
 10 12  1  0  0  0
 10 35  1  0  0  0
 10 36  1  0  0  0
 11 37  1  0  0  0
 11 38  1  0  0  0
 11 65  1  0  0  0
 12 39  1  0  0  0
 12 40  1  0  0  0
 12 65  1  0  0  0
 13 17  2  0  0  0
 13 18  1  0  0  0
 14 19  1  0  0  0
 14 41  1  0  0  0
 14 42  1  0  0  0
 14 65  1  0  0  0
 15 23  2  0  0  0
 15 24  1  0  0  0
 16 20  1  0  0  0
 17 21  1  0  0  0
 17 43  1  0  0  0
 18 22  2  0  0  0
 18 44  1  0  0  0
 19 45  1  0  0  0
 19 46  1  0  0  0
 20 26  1  0  0  0
 20 47  1  0  0  0
 20 48  1  0  0  0
 21 25  2  0  0  0
 21 49  1  0  0  0
 22 25  1  0  0  0
 22 50  1  0  0  0
 23 27  1  0  0  0
 23 51  1  0  0  0
 24 28  2  0  0  0
 24 52  1  0  0  0
 25 53  1  0  0  0
 26 54  1  0  0  0
 26 55  1  0  0  0
 26 56  1  0  0  0
 27 30  2  0  0  0
 27 57  1  0  0  0
 28 30  1  0  0  0
 28 58  1  0  0  0
 30 59  1  0  0  0
 31 32  1  0  0  0
 31 60  1  0  0  0
 31 61  1  0  0  0
 32 62  1  0  0  0
 32 63  1  0  0  0
 32 64  1  0  0  0
 65 66  1  0  0  0
M  CHG  1  65   1
M  END
> <LID>
L002370

> <PC_CID>
14348736

> <Names>


> <CAS_Numbers>


$$$$
9844323
                    3D
 Structure written by MMmdl.
 58 61  0  0  1  0            999 V2000
   -1.4543    0.1174   -4.3586 O   0  0  0  0  0  0
    1.2122   -0.8131    1.0975 C   0  0  1  0  0  0
    1.0452   -1.8509    2.2313 C   0  0  0  0  0  0
    0.1292    0.2840    1.1723 C   0  0  0  0  0  0
   -0.2381   -2.6935    2.1321 C   0  0  0  0  0  0
   -1.5322   -1.8804    2.3071 C   0  0  0  0  0  0
   -1.1819   -0.1338    0.5228 C   0  0  0  0  0  0
   -1.9394   -1.1288    1.0434 C   0  0  0  0  0  0
    2.6158   -0.1895    1.0134 C   0  0  0  0  0  0
   -3.2544   -1.5911    0.4140 C   0  0  0  0  0  0
    3.1490    0.2954   -0.2184 C   0  0  0  0  0  0
   -1.5855    0.5684   -0.7047 C   0  0  0  0  0  0
    3.3981   -0.0664    2.1877 C   0  0  0  0  0  0
    4.4568    0.8554   -0.2468 C   0  0  0  0  0  0
    4.6880    0.4898    2.1487 C   0  0  0  0  0  0
    2.4150    0.2526   -1.4309 C   0  0  0  0  0  0
   -1.3350   -0.0103   -1.9662 C   0  0  0  0  0  0
   -2.1745    1.8460   -0.6162 C   0  0  0  0  0  0
    5.2202    0.9444    0.9325 C   0  0  0  0  0  0
    5.0072    1.3360   -1.4535 C   0  0  0  0  0  0
   -5.5814   -0.9397   -0.0303 C   0  0  0  0  0  0
   -4.7625   -0.9302    2.2791 C   0  0  0  0  0  0
    2.9667    0.7373   -2.6317 C   0  0  0  0  0  0
   -1.6943    0.6807   -3.1396 C   0  0  0  0  0  0
   -2.5357    2.5338   -1.7910 C   0  0  0  0  0  0
    4.2643    1.2762   -2.6454 C   0  0  0  0  0  0
   -2.2977    1.9514   -3.0517 C   0  0  0  0  0  0
    1.0772   -1.3843    0.1799 H   0  0  0  0  0  0
    1.0714   -1.3653    3.2071 H   0  0  0  0  0  0
    1.8928   -2.5373    2.2071 H   0  0  0  0  0  0
    0.4722    1.1798    0.6523 H   0  0  0  0  0  0
   -0.0360    0.6015    2.2025 H   0  0  0  0  0  0
   -0.2014   -3.4492    2.9175 H   0  0  0  0  0  0
   -0.2617   -3.2451    1.1912 H   0  0  0  0  0  0
   -1.4330   -1.1780    3.1354 H   0  0  0  0  0  0
   -2.3329   -2.5604    2.5987 H   0  0  0  0  0  0
   -3.1703   -1.5426   -0.6711 H   0  0  0  0  0  0
   -3.4380   -2.6439    0.6339 H   0  0  0  0  0  0
    3.0254   -0.3964    3.1444 H   0  0  0  0  0  0
    5.2698    0.5683    3.0553 H   0  0  0  0  0  0
    1.4133   -0.1400   -1.4742 H   0  0  0  0  0  0
   -0.8677   -0.9822   -2.0346 H   0  0  0  0  0  0
   -2.3491    2.3005    0.3483 H   0  0  0  0  0  0
    6.2128    1.3706    0.9119 H   0  0  0  0  0  0
    6.0018    1.7578   -1.4696 H   0  0  0  0  0  0
   -6.3909   -0.2701    0.2624 H   0  0  0  0  0  0
   -5.3270   -0.7121   -1.0662 H   0  0  0  0  0  0
   -5.9519   -1.9648    0.0147 H   0  0  0  0  0  0
   -5.6199   -0.3082    2.5384 H   0  0  0  0  0  0
   -5.0170   -1.9677    2.4997 H   0  0  0  0  0  0
   -3.9425   -0.6294    2.9304 H   0  0  0  0  0  0
    2.3898    0.6961   -3.5440 H   0  0  0  0  0  0
   -2.9905    3.5114   -1.7258 H   0  0  0  0  0  0
    4.6875    1.6476   -3.5672 H   0  0  0  0  0  0
   -2.5747    2.4863   -3.9485 H   0  0  0  0  0  0
   -1.7210    0.6638   -5.0820 H   0  0  0  0  0  0
   -4.4065   -0.7612    0.8512 N   0  3  0  0  0  0
   -4.1200    0.2011    0.7373 H   0  0  0  0  0  0
  1 24  1  0  0  0
  1 56  1  0  0  0
  2  3  1  0  0  0
  2  4  1  0  0  0
  2  9  1  0  0  0
  2 28  1  0  0  0
  3  5  1  0  0  0
  3 29  1  0  0  0
  3 30  1  0  0  0
  4  7  1  0  0  0
  4 31  1  0  0  0
  4 32  1  0  0  0
  5  6  1  0  0  0
  5 33  1  0  0  0
  5 34  1  0  0  0
  6  8  1  0  0  0
  6 35  1  0  0  0
  6 36  1  0  0  0
  7  8  2  0  0  0
  7 12  1  0  0  0
  8 10  1  0  0  0
  9 11  1  0  0  0
  9 13  2  0  0  0
 10 37  1  0  0  0
 10 38  1  0  0  0
 10 57  1  0  0  0
 11 14  1  0  0  0
 11 16  2  0  0  0
 12 17  2  0  0  0
 12 18  1  0  0  0
 13 15  1  0  0  0
 13 39  1  0  0  0
 14 19  1  0  0  0
 14 20  2  0  0  0
 15 19  2  0  0  0
 15 40  1  0  0  0
 16 23  1  0  0  0
 16 41  1  0  0  0
 17 24  1  0  0  0
 17 42  1  0  0  0
 18 25  2  0  0  0
 18 43  1  0  0  0
 19 44  1  0  0  0
 20 26  1  0  0  0
 20 45  1  0  0  0
 21 46  1  0  0  0
 21 47  1  0  0  0
 21 48  1  0  0  0
 21 57  1  0  0  0
 22 49  1  0  0  0
 22 50  1  0  0  0
 22 51  1  0  0  0
 22 57  1  0  0  0
 23 26  2  0  0  0
 23 52  1  0  0  0
 24 27  2  0  0  0
 25 27  1  0  0  0
 25 53  1  0  0  0
 26 54  1  0  0  0
 27 55  1  0  0  0
 57 58  1  0  0  0
M  CHG  1  57   1
M  END
> <LID>
L019789

> <PC_CID>
9844323

> <Names>


> <CAS_Numbers>


$$$$
18377112
                    3D
 Structure written by MMmdl.
 43 45  0  0  1  0            999 V2000
    6.5087   -2.4019   -0.6010 Br  0  0  0  0  0  0
    1.7581    1.8001    0.7709 S   0  0  0  0  0  0
   -5.2869   -2.3705   -0.3137 O   0  0  0  0  0  0
   -2.3176    1.5979   -0.2993 C   0  0  0  0  0  0
   -0.9798    2.0964    0.3340 C   0  0  1  0  0  0
    0.1975    1.1308    0.1049 C   0  0  2  0  0  0
   -2.5467    0.0998   -0.0180 C   0  0  0  0  0  0
   -0.1109   -0.2263    0.7479 C   0  0  0  0  0  0
   -1.5081   -0.7451    0.4599 C   0  0  0  0  0  0
   -3.4688    2.4357    0.3129 C   0  0  0  0  0  0
   -2.3185    1.7948   -1.8350 C   0  0  0  0  0  0
   -3.8138   -0.4774   -0.2825 C   0  0  0  0  0  0
   -1.7583   -2.1145    0.6909 C   0  0  0  0  0  0
   -4.0553   -1.8446   -0.0534 C   0  0  0  0  0  0
   -3.0266   -2.6651    0.4391 C   0  0  0  0  0  0
    3.0427    0.6509    0.3802 C   0  0  0  0  0  0
    4.0434    0.3878    1.3368 C   0  0  0  0  0  0
    3.0833    0.0088   -0.8756 C   0  0  0  0  0  0
    5.0766   -0.5238    1.0446 C   0  0  0  0  0  0
    4.1174   -0.9026   -1.1661 C   0  0  0  0  0  0
    5.1130   -1.1702   -0.2063 C   0  0  0  0  0  0
   -1.1224    2.1540    1.4148 H   0  0  0  0  0  0
    0.3272    0.9952   -0.9680 H   0  0  0  0  0  0
   -0.0109   -0.1518    1.8316 H   0  0  0  0  0  0
    0.6192   -0.9674    0.4206 H   0  0  0  0  0  0
   -4.4360    2.2121   -0.1354 H   0  0  0  0  0  0
   -3.5587    2.2604    1.3857 H   0  0  0  0  0  0
   -3.3140    3.5050    0.1698 H   0  0  0  0  0  0
   -3.2589    1.4626   -2.2762 H   0  0  0  0  0  0
   -2.1975    2.8394   -2.1212 H   0  0  0  0  0  0
   -1.5247    1.2245   -2.3174 H   0  0  0  0  0  0
    0.2092    3.7603    0.3690 H   0  0  0  0  0  0
   -0.4995    3.4871   -1.0942 H   0  0  0  0  0  0
   -4.6201    0.1213   -0.6772 H   0  0  0  0  0  0
   -0.9700   -2.7528    1.0631 H   0  0  0  0  0  0
   -3.2020   -3.7157    0.6189 H   0  0  0  0  0  0
    4.0194    0.8812    2.2975 H   0  0  0  0  0  0
    2.3329    0.2101   -1.6245 H   0  0  0  0  0  0
   -5.3445   -3.2951   -0.1275 H   0  0  0  0  0  0
    5.8412   -0.7268    1.7801 H   0  0  0  0  0  0
    4.1480   -1.3951   -2.1269 H   0  0  0  0  0  0
   -0.6407    3.4705   -0.0944 N   0  3  0  0  0  0
   -1.3923    4.0983    0.1520 H   0  0  0  0  0  0
  1 21  1  0  0  0
  2  6  1  0  0  0
  2 16  1  0  0  0
  3 14  1  0  0  0
  3 39  1  0  0  0
  4  5  1  0  0  0
  4  7  1  0  0  0
  4 10  1  0  0  0
  4 11  1  0  0  0
  5  6  1  0  0  0
  5 22  1  0  0  0
  5 42  1  0  0  0
  6  8  1  0  0  0
  6 23  1  0  0  0
  7  9  2  0  0  0
  7 12  1  0  0  0
  8  9  1  0  0  0
  8 24  1  0  0  0
  8 25  1  0  0  0
  9 13  1  0  0  0
 10 26  1  0  0  0
 10 27  1  0  0  0
 10 28  1  0  0  0
 11 29  1  0  0  0
 11 30  1  0  0  0
 11 31  1  0  0  0
 12 14  2  0  0  0
 12 34  1  0  0  0
 13 15  2  0  0  0
 13 35  1  0  0  0
 14 15  1  0  0  0
 15 36  1  0  0  0
 16 17  2  0  0  0
 16 18  1  0  0  0
 17 19  1  0  0  0
 17 37  1  0  0  0
 18 20  2  0  0  0
 18 38  1  0  0  0
 19 21  2  0  0  0
 19 40  1  0  0  0
 20 21  1  0  0  0
 20 41  1  0  0  0
 32 42  1  0  0  0
 33 42  1  0  0  0
 42 43  1  0  0  0
M  CHG  1  42   1
M  END
> <LID>
L019836

> <PC_CID>
18377112

> <Names>


> <CAS_Numbers>


$$$$
10115200
                    3D
 Structure written by MMmdl.
 68 71  0  0  1  0            999 V2000
   -1.8694    4.9906   -1.8992 O   0  0  0  0  0  0
    6.4490    0.5261   -0.3422 O   0  0  0  0  0  0
    6.0032   -1.6886   -0.0496 N   0  0  0  0  0  0
   -8.1063   -2.2328    0.3393 N   0  0  0  0  0  0
   -1.6533   -1.9944   -0.3629 C   0  0  0  0  0  0
   -3.2937   -0.1614   -0.1863 C   0  0  0  0  0  0
   -0.7194   -1.2932    0.6386 C   0  0  0  0  0  0
   -2.3975    0.5703    0.8252 C   0  0  0  0  0  0
   -0.9289    0.2171    0.6168 C   0  0  0  0  0  0
   -3.9896   -2.3907   -1.0324 C   0  0  0  0  0  0
    0.0612    1.1269    0.4247 C   0  0  0  0  0  0
    1.4707    0.7240    0.2844 C   0  0  0  0  0  0
   -0.2145    2.5712    0.3429 C   0  0  0  0  0  0
   -5.4303   -2.3356   -0.5574 C   0  0  0  0  0  0
    2.1530    0.9475   -0.9299 C   0  0  0  0  0  0
    2.1682    0.1556    1.3722 C   0  0  0  0  0  0
   -0.9281    3.1046   -0.7530 C   0  0  0  0  0  0
    0.2747    3.4436    1.3386 C   0  0  0  0  0  0
   -6.3711   -1.4985   -1.1920 C   0  0  0  0  0  0
   -5.8550   -3.1216    0.5333 C   0  0  0  0  0  0
    4.1915   -0.0216    0.0101 C   0  0  0  0  0  0
    3.5057    0.5806   -1.0657 C   0  0  0  0  0  0
    3.5207   -0.2119    1.2380 C   0  0  0  0  0  0
   -1.1709    4.4892   -0.8399 C   0  0  0  0  0  0
    0.0338    4.8286    1.2523 C   0  0  0  0  0  0
    5.6416   -0.3816   -0.1400 C   0  0  0  0  0  0
   -7.6936   -1.4844   -0.7056 C   0  0  0  0  0  0
   -7.2013   -3.0337    0.9405 C   0  0  0  0  0  0
   -0.6911    5.3521    0.1647 C   0  0  0  0  0  0
    7.4194   -2.0785   -0.1155 C   0  0  0  0  0  0
    5.0660   -2.8221    0.0192 C   0  0  0  0  0  0
    8.0749   -2.0364    1.2719 C   0  0  0  0  0  0
    4.5018   -3.1772   -1.3644 C   0  0  0  0  0  0
   -1.3681   -1.7297   -1.3826 H   0  0  0  0  0  0
   -1.5296   -3.0742   -0.2709 H   0  0  0  0  0  0
   -4.3345    0.0744    0.0352 H   0  0  0  0  0  0
   -3.0941    0.2063   -1.1942 H   0  0  0  0  0  0
   -0.9222   -1.6523    1.6483 H   0  0  0  0  0  0
    0.3076   -1.5759    0.4134 H   0  0  0  0  0  0
   -2.5873    1.6410    0.7775 H   0  0  0  0  0  0
   -2.6727    0.2690    1.8367 H   0  0  0  0  0  0
   -3.9110   -2.0183   -2.0551 H   0  0  0  0  0  0
   -3.6923   -3.4400   -1.0605 H   0  0  0  0  0  0
    1.6385    1.4023   -1.7640 H   0  0  0  0  0  0
    1.6654    0.0020    2.3160 H   0  0  0  0  0  0
   -1.2926    2.4479   -1.5296 H   0  0  0  0  0  0
    0.8356    3.0508    2.1743 H   0  0  0  0  0  0
   -6.0923   -0.8786   -2.0316 H   0  0  0  0  0  0
   -5.1711   -3.7798    1.0489 H   0  0  0  0  0  0
    4.0139    0.7589   -2.0025 H   0  0  0  0  0  0
    4.0415   -0.6397    2.0827 H   0  0  0  0  0  0
    0.4073    5.4898    2.0203 H   0  0  0  0  0  0
   -8.4390   -0.8542   -1.1677 H   0  0  0  0  0  0
   -7.5600   -3.6221    1.7721 H   0  0  0  0  0  0
   -0.8725    6.4153    0.1041 H   0  0  0  0  0  0
    7.5168   -3.0816   -0.5330 H   0  0  0  0  0  0
    7.9702   -1.4355   -0.8042 H   0  0  0  0  0  0
    5.5739   -3.6965    0.4286 H   0  0  0  0  0  0
    4.2523   -2.6363    0.7169 H   0  0  0  0  0  0
   -1.9711    5.9296   -1.8675 H   0  0  0  0  0  0
    9.1196   -2.3427    1.2156 H   0  0  0  0  0  0
    8.0474   -1.0311    1.6934 H   0  0  0  0  0  0
    7.5695   -2.7064    1.9680 H   0  0  0  0  0  0
    3.8424   -4.0429   -1.3016 H   0  0  0  0  0  0
    3.9245   -2.3543   -1.7861 H   0  0  0  0  0  0
    5.3008   -3.4197   -2.0656 H   0  0  0  0  0  0
   -3.0768   -1.6323   -0.1408 N   0  3  1  0  0  0
   -3.2984   -1.9260    0.8000 H   0  0  0  0  0  0
  1 24  1  0  0  0
  1 60  1  0  0  0
  2 26  2  0  0  0
  3 26  1  0  0  0
  3 30  1  0  0  0
  3 31  1  0  0  0
  4 27  2  0  0  0
  4 28  1  0  0  0
  5  7  1  0  0  0
  5 34  1  0  0  0
  5 35  1  0  0  0
  5 67  1  0  0  0
  6  8  1  0  0  0
  6 36  1  0  0  0
  6 37  1  0  0  0
  6 67  1  0  0  0
  7  9  1  0  0  0
  7 38  1  0  0  0
  7 39  1  0  0  0
  8  9  1  0  0  0
  8 40  1  0  0  0
  8 41  1  0  0  0
  9 11  2  0  0  0
 10 14  1  0  0  0
 10 42  1  0  0  0
 10 43  1  0  0  0
 10 67  1  0  0  0
 11 12  1  0  0  0
 11 13  1  0  0  0
 12 15  2  0  0  0
 12 16  1  0  0  0
 13 17  2  0  0  0
 13 18  1  0  0  0
 14 19  2  0  0  0
 14 20  1  0  0  0
 15 22  1  0  0  0
 15 44  1  0  0  0
 16 23  2  0  0  0
 16 45  1  0  0  0
 17 24  1  0  0  0
 17 46  1  0  0  0
 18 25  2  0  0  0
 18 47  1  0  0  0
 19 27  1  0  0  0
 19 48  1  0  0  0
 20 28  2  0  0  0
 20 49  1  0  0  0
 21 22  2  0  0  0
 21 23  1  0  0  0
 21 26  1  0  0  0
 22 50  1  0  0  0
 23 51  1  0  0  0
 24 29  2  0  0  0
 25 29  1  0  0  0
 25 52  1  0  0  0
 27 53  1  0  0  0
 28 54  1  0  0  0
 29 55  1  0  0  0
 30 32  1  0  0  0
 30 56  1  0  0  0
 30 57  1  0  0  0
 31 33  1  0  0  0
 31 58  1  0  0  0
 31 59  1  0  0  0
 32 61  1  0  0  0
 32 62  1  0  0  0
 32 63  1  0  0  0
 33 64  1  0  0  0
 33 65  1  0  0  0
 33 66  1  0  0  0
 67 68  1  0  0  0
M  CHG  1  67   1
M  END
> <LID>
L020873

> <PC_CID>
10115200

> <Names>


> <CAS_Numbers>


$$$$
10343380
                    3D
 Structure written by MMmdl.
 67 70  0  0  1  0            999 V2000
   -3.4471    3.5702    1.5574 O   0  0  0  0  0  0
    4.9805    2.5782   -1.0952 O   0  0  0  0  0  0
   -5.1334    2.5137    0.4484 N   0  0  0  0  0  0
    3.9822    0.3882    0.1884 N   0  0  0  0  0  0
   -0.6712   -3.1351   -0.0976 C   0  0  0  0  0  0
   -2.0891   -3.4386   -0.5778 C   0  0  0  0  0  0
    0.2577   -4.3291   -0.3094 C   0  0  0  0  0  0
   -2.0881   -3.9417   -2.0306 C   0  0  0  0  0  0
    0.2036   -4.8229   -1.7660 C   0  0  0  0  0  0
   -0.2833   -1.9499    0.4407 C   0  0  0  0  0  0
   -1.2123   -0.8147    0.5644 C   0  0  0  0  0  0
    1.0836   -1.7298    0.9437 C   0  0  0  0  0  0
    1.9166   -0.7706    0.3289 C   0  0  0  0  0  0
   -1.6460   -0.1145   -0.5819 C   0  0  0  0  0  0
   -1.6363   -0.3822    1.8382 C   0  0  0  0  0  0
    1.5603   -2.4397    2.0667 C   0  0  0  0  0  0
    3.2204   -0.5320    0.8104 C   0  0  0  0  0  0
   -2.9718    1.3922    0.8153 C   0  0  0  0  0  0
   -2.5179    0.9839   -0.4580 C   0  0  0  0  0  0
   -2.5081    0.7164    1.9637 C   0  0  0  0  0  0
    2.8602   -2.2081    2.5536 C   0  0  0  0  0  0
    3.6901   -1.2590    1.9273 C   0  0  0  0  0  0
   -3.8785    2.5797    0.9661 C   0  0  0  0  0  0
   -6.0280    3.6790    0.5066 C   0  0  0  0  0  0
   -5.7536    1.3018   -0.1124 C   0  0  0  0  0  0
    5.3355    0.7934    0.5348 C   0  0  0  0  0  0
   -5.8225    4.6015   -0.7030 C   0  0  0  0  0  0
   -6.2676    0.3647    0.9905 C   0  0  0  0  0  0
    5.8828    1.8396   -0.3839 C   0  0  0  0  0  0
    7.1556    2.2501   -0.6704 C   0  0  0  0  0  0
    7.0372    3.3009   -1.6216 C   0  0  0  0  0  0
    5.6990    3.4589   -1.8434 C   0  0  0  0  0  0
   -2.7603   -2.5866   -0.4854 H   0  0  0  0  0  0
   -2.5026   -4.2103    0.0728 H   0  0  0  0  0  0
   -0.0550   -5.1279    0.3642 H   0  0  0  0  0  0
    1.2925   -4.1030   -0.0575 H   0  0  0  0  0  0
   -3.0956   -4.2296   -2.3320 H   0  0  0  0  0  0
   -1.7698   -3.1446   -2.7041 H   0  0  0  0  0  0
    0.6337   -4.0729   -2.4314 H   0  0  0  0  0  0
    0.8005   -5.7281   -1.8808 H   0  0  0  0  0  0
    1.5485   -0.2159   -0.5225 H   0  0  0  0  0  0
   -1.3074   -0.4188   -1.5616 H   0  0  0  0  0  0
   -1.2927   -0.8941    2.7254 H   0  0  0  0  0  0
    0.9280   -3.1655    2.5572 H   0  0  0  0  0  0
   -2.8357    1.5131   -1.3450 H   0  0  0  0  0  0
   -2.8238    1.0356    2.9466 H   0  0  0  0  0  0
    3.2209   -2.7574    3.4107 H   0  0  0  0  0  0
    4.6836   -1.0967    2.3183 H   0  0  0  0  0  0
    3.5703    0.8828   -0.5902 H   0  0  0  0  0  0
   -7.0692    3.3554    0.5438 H   0  0  0  0  0  0
   -5.8781    4.2413    1.4299 H   0  0  0  0  0  0
   -6.5884    1.5795   -0.7576 H   0  0  0  0  0  0
   -5.0752    0.7646   -0.7716 H   0  0  0  0  0  0
    5.3409    1.1703    1.5580 H   0  0  0  0  0  0
    5.9833   -0.0835    0.5144 H   0  0  0  0  0  0
   -6.5012    5.4534   -0.6596 H   0  0  0  0  0  0
   -4.8046    4.9911   -0.7364 H   0  0  0  0  0  0
   -6.0110    4.0740   -1.6385 H   0  0  0  0  0  0
   -6.7594   -0.5067    0.5580 H   0  0  0  0  0  0
   -5.4555    0.0041    1.6219 H   0  0  0  0  0  0
   -6.9913    0.8695    1.6311 H   0  0  0  0  0  0
    8.0619    1.8429   -0.2468 H   0  0  0  0  0  0
    7.8302    3.8704   -2.0835 H   0  0  0  0  0  0
    5.1145    4.1180   -2.4683 H   0  0  0  0  0  0
   -1.1856   -5.1024   -2.1890 N   0  3  0  0  0  0
   -1.1833   -5.3878   -3.1582 H   0  0  0  0  0  0
   -1.5428   -5.8629   -1.6282 H   0  0  0  0  0  0
  1 23  2  0  0  0
  2 29  1  0  0  0
  2 32  1  0  0  0
  3 23  1  0  0  0
  3 24  1  0  0  0
  3 25  1  0  0  0
  4 17  1  0  0  0
  4 26  1  0  0  0
  4 49  1  0  0  0
  5  6  1  0  0  0
  5  7  1  0  0  0
  5 10  2  0  0  0
  6  8  1  0  0  0
  6 33  1  0  0  0
  6 34  1  0  0  0
  7  9  1  0  0  0
  7 35  1  0  0  0
  7 36  1  0  0  0
  8 37  1  0  0  0
  8 38  1  0  0  0
  8 65  1  0  0  0
  9 39  1  0  0  0
  9 40  1  0  0  0
  9 65  1  0  0  0
 10 11  1  0  0  0
 10 12  1  0  0  0
 11 14  2  0  0  0
 11 15  1  0  0  0
 12 13  2  0  0  0
 12 16  1  0  0  0
 13 17  1  0  0  0
 13 41  1  0  0  0
 14 19  1  0  0  0
 14 42  1  0  0  0
 15 20  2  0  0  0
 15 43  1  0  0  0
 16 21  2  0  0  0
 16 44  1  0  0  0
 17 22  2  0  0  0
 18 19  2  0  0  0
 18 20  1  0  0  0
 18 23  1  0  0  0
 19 45  1  0  0  0
 20 46  1  0  0  0
 21 22  1  0  0  0
 21 47  1  0  0  0
 22 48  1  0  0  0
 24 27  1  0  0  0
 24 50  1  0  0  0
 24 51  1  0  0  0
 25 28  1  0  0  0
 25 52  1  0  0  0
 25 53  1  0  0  0
 26 29  1  0  0  0
 26 54  1  0  0  0
 26 55  1  0  0  0
 27 56  1  0  0  0
 27 57  1  0  0  0
 27 58  1  0  0  0
 28 59  1  0  0  0
 28 60  1  0  0  0
 28 61  1  0  0  0
 29 30  2  0  0  0
 30 31  1  0  0  0
 30 62  1  0  0  0
 31 32  2  0  0  0
 31 63  1  0  0  0
 32 64  1  0  0  0
 65 66  1  0  0  0
 65 67  1  0  0  0
M  CHG  1  65   1
M  END
> <LID>
L022976

> <PC_CID>
10343380

> <Names>


> <CAS_Numbers>


$$$$
10413690
                    3D
 Structure written by MMmdl.
 73 76  0  0  1  0            999 V2000
    4.8898   -4.9936    0.4169 O   0  0  0  0  0  0
   -5.5439    0.0302   -1.6165 O   0  0  0  0  0  0
    2.6763    6.2851   -0.6738 O   0  0  0  0  0  0
    1.3597    6.8899   -2.4309 O   0  0  0  0  0  0
   -5.6742   -1.6988   -0.1393 N   0  0  0  0  0  0
    0.8061    5.0774   -1.0884 N   0  0  0  0  0  0
    3.8002   -0.8755    0.1149 C   0  0  0  0  0  0
    2.0905   -2.5939   -0.3357 C   0  0  0  0  0  0
    2.8857   -0.1954    1.1483 C   0  0  0  0  0  0
    1.1459   -1.9559    0.6952 C   0  0  0  0  0  0
    1.4159   -0.4620    0.8407 C   0  0  0  0  0  0
    4.4672   -3.0128   -0.9134 C   0  0  0  0  0  0
    0.4725    0.5055    0.7039 C   0  0  0  0  0  0
   -0.9189    0.1865    0.3434 C   0  0  0  0  0  0
    0.7799    1.9307    0.9137 C   0  0  0  0  0  0
    4.4258   -4.4982   -0.7648 C   0  0  0  0  0  0
   -1.2364   -0.2801   -0.9505 C   0  0  0  0  0  0
   -1.9577    0.3981    1.2739 C   0  0  0  0  0  0
    0.6745    2.8412   -0.1593 C   0  0  0  0  0  0
    1.1374    2.4091    2.1927 C   0  0  0  0  0  0
    3.9952   -5.5156   -1.5709 C   0  0  0  0  0  0
   -2.5713   -0.5612   -1.2989 C   0  0  0  0  0  0
   -3.2932    0.1175    0.9268 C   0  0  0  0  0  0
   -3.6050   -0.3820   -0.3559 C   0  0  0  0  0  0
    0.9574    4.2099    0.0265 C   0  0  0  0  0  0
    1.3981    3.7777    2.3923 C   0  0  0  0  0  0
    4.2099   -6.7194   -0.8447 C   0  0  0  0  0  0
    4.7535   -6.3462    0.3515 C   0  0  0  0  0  0
    1.3037    4.6786    1.3150 C   0  0  0  0  0  0
   -5.0255   -0.6701   -0.7460 C   0  0  0  0  0  0
   -7.0708   -2.0034   -0.4853 C   0  0  0  0  0  0
   -5.0540   -2.6655    0.7828 C   0  0  0  0  0  0
   -7.1746   -2.8316   -1.7757 C   0  0  0  0  0  0
   -5.4314   -2.4036    2.2499 C   0  0  0  0  0  0
    1.5973    6.1590   -1.4698 C   0  0  0  0  0  0
    3.6107    7.3231   -0.9147 C   0  0  0  0  0  0
    4.8409   -0.7267    0.4058 H   0  0  0  0  0  0
    3.6739   -0.4016   -0.8602 H   0  0  0  0  0  0
    1.8696   -2.2065   -1.3317 H   0  0  0  0  0  0
    1.9032   -3.6675   -0.3667 H   0  0  0  0  0  0
    3.1205    0.8673    1.1740 H   0  0  0  0  0  0
    3.1019   -0.5820    2.1450 H   0  0  0  0  0  0
    1.3063   -2.4204    1.6690 H   0  0  0  0  0  0
    0.1129   -2.1762    0.4320 H   0  0  0  0  0  0
    4.2586   -2.7302   -1.9463 H   0  0  0  0  0  0
    5.4820   -2.6744   -0.6998 H   0  0  0  0  0  0
   -0.4534   -0.4230   -1.6808 H   0  0  0  0  0  0
   -1.7322    0.7813    2.2585 H   0  0  0  0  0  0
    0.3832    2.4824   -1.1362 H   0  0  0  0  0  0
    1.2050    1.7260    3.0269 H   0  0  0  0  0  0
    3.5762   -5.4077   -2.5606 H   0  0  0  0  0  0
   -2.7984   -0.9192   -2.2929 H   0  0  0  0  0  0
   -4.0764    0.3038    1.6458 H   0  0  0  0  0  0
    1.6622    4.1389    3.3754 H   0  0  0  0  0  0
    3.9936   -7.7305   -1.1571 H   0  0  0  0  0  0
    5.0851   -6.8868    1.2259 H   0  0  0  0  0  0
    1.4846    5.7284    1.4927 H   0  0  0  0  0  0
    0.0707    4.8509   -1.7420 H   0  0  0  0  0  0
   -7.5498   -2.5520    0.3261 H   0  0  0  0  0  0
   -7.6467   -1.0818   -0.5871 H   0  0  0  0  0  0
   -5.3814   -3.6695    0.5095 H   0  0  0  0  0  0
   -3.9691   -2.6946    0.6804 H   0  0  0  0  0  0
   -8.2154   -3.0632   -2.0021 H   0  0  0  0  0  0
   -6.7641   -2.2942   -2.6309 H   0  0  0  0  0  0
   -6.6380   -3.7762   -1.6847 H   0  0  0  0  0  0
   -4.9585   -3.1375    2.9026 H   0  0  0  0  0  0
   -5.1142   -1.4179    2.5844 H   0  0  0  0  0  0
   -6.5074   -2.4741    2.4079 H   0  0  0  0  0  0
    4.4130    7.2773   -0.1784 H   0  0  0  0  0  0
    4.0530    7.2258   -1.9069 H   0  0  0  0  0  0
    3.1338    8.3010   -0.8384 H   0  0  0  0  0  0
    3.5157   -2.3283   -0.0038 N   0  3  1  0  0  0
    3.6763   -2.7230    0.9122 H   0  0  0  0  0  0
  1 16  1  0  0  0
  1 28  1  0  0  0
  2 30  2  0  0  0
  3 35  1  0  0  0
  3 36  1  0  0  0
  4 35  2  0  0  0
  5 30  1  0  0  0
  5 31  1  0  0  0
  5 32  1  0  0  0
  6 25  1  0  0  0
  6 35  1  0  0  0
  6 58  1  0  0  0
  7  9  1  0  0  0
  7 37  1  0  0  0
  7 38  1  0  0  0
  7 72  1  0  0  0
  8 10  1  0  0  0
  8 39  1  0  0  0
  8 40  1  0  0  0
  8 72  1  0  0  0
  9 11  1  0  0  0
  9 41  1  0  0  0
  9 42  1  0  0  0
 10 11  1  0  0  0
 10 43  1  0  0  0
 10 44  1  0  0  0
 11 13  2  0  0  0
 12 16  1  0  0  0
 12 45  1  0  0  0
 12 46  1  0  0  0
 12 72  1  0  0  0
 13 14  1  0  0  0
 13 15  1  0  0  0
 14 17  2  0  0  0
 14 18  1  0  0  0
 15 19  2  0  0  0
 15 20  1  0  0  0
 16 21  2  0  0  0
 17 22  1  0  0  0
 17 47  1  0  0  0
 18 23  2  0  0  0
 18 48  1  0  0  0
 19 25  1  0  0  0
 19 49  1  0  0  0
 20 26  2  0  0  0
 20 50  1  0  0  0
 21 27  1  0  0  0
 21 51  1  0  0  0
 22 24  2  0  0  0
 22 52  1  0  0  0
 23 24  1  0  0  0
 23 53  1  0  0  0
 24 30  1  0  0  0
 25 29  2  0  0  0
 26 29  1  0  0  0
 26 54  1  0  0  0
 27 28  2  0  0  0
 27 55  1  0  0  0
 28 56  1  0  0  0
 29 57  1  0  0  0
 31 33  1  0  0  0
 31 59  1  0  0  0
 31 60  1  0  0  0
 32 34  1  0  0  0
 32 61  1  0  0  0
 32 62  1  0  0  0
 33 63  1  0  0  0
 33 64  1  0  0  0
 33 65  1  0  0  0
 34 66  1  0  0  0
 34 67  1  0  0  0
 34 68  1  0  0  0
 36 69  1  0  0  0
 36 70  1  0  0  0
 36 71  1  0  0  0
 72 73  1  0  0  0
M  CHG  1  72   1
M  END
> <LID>
L023137

> <PC_CID>
10413690

> <Names>


> <CAS_Numbers>


$$$$
20812163
                    3D
 Structure written by MMmdl.
 84 88  0  0  1  0            999 V2000
   -2.5907    1.3527    0.2485 O   0  0  0  0  0  0
   -1.3774   -5.0743    2.9417 O   0  0  0  0  0  0
    2.5915    6.0039   -1.2738 O   0  0  0  0  0  0
    3.6963    4.1503   -0.4340 N   0  0  0  0  0  0
   -1.8261   -6.8572    1.6219 N   0  0  0  0  0  0
    4.8159    5.6099   -1.6234 N   0  0  0  0  0  0
   -2.2069   -1.7737   -0.4467 C   0  0  0  0  0  0
   -1.7868   -4.5275    0.6561 C   0  0  0  0  0  0
   -0.8245   -2.4547   -0.4632 C   0  0  0  0  0  0
   -3.3262   -2.8359   -0.4622 C   0  0  0  0  0  0
   -0.6737   -3.4570    0.6924 C   0  0  0  0  0  0
   -3.1690   -3.8444    0.6877 C   0  0  0  0  0  0
   -2.3365   -0.7624   -1.6045 C   0  0  0  0  0  0
    2.6245    3.4421    0.2828 C   0  0  0  0  0  0
    2.0407    4.2834    1.4331 C   0  0  0  0  0  0
    1.4889    3.0010   -0.6593 C   0  0  0  0  0  0
   -1.6518   -5.5257    1.8278 C   0  0  0  0  0  0
    0.9280    3.5134    2.1623 C   0  0  0  0  0  0
    0.3816    2.2656    0.1140 C   0  0  0  0  0  0
   -3.5874    0.1018   -1.5247 C   0  0  0  0  0  0
   -1.2917    2.4723    1.9460 C   0  0  0  0  0  0
    5.0285    3.6959   -0.5104 C   0  0  0  0  0  0
   -3.6712    1.1585   -0.5861 C   0  0  0  0  0  0
   -2.5984    2.4614    1.1346 C   0  0  0  0  0  0
    3.6011    5.3185   -1.1227 C   0  0  0  0  0  0
   -4.6620   -0.1541   -2.4027 C   0  0  0  0  0  0
   -1.6485   -7.8199    2.7189 C   0  0  0  0  0  0
   -2.2381   -7.4655    0.3490 C   0  0  0  0  0  0
    5.7259    4.6203   -1.2605 C   0  0  0  0  0  0
   -4.8474    1.9499   -0.5462 C   0  0  0  0  0  0
    5.6614    2.5550    0.0183 C   0  0  0  0  0  0
   -5.8243    0.6361   -2.3530 C   0  0  0  0  0  0
    7.0941    4.4890   -1.5439 C   0  0  0  0  0  0
   -5.9156    1.6882   -1.4249 C   0  0  0  0  0  0
   -2.9254   -7.9619    3.5605 C   0  0  0  0  0  0
   -1.0282   -7.8129   -0.5320 C   0  0  0  0  0  0
    7.0416    2.3939   -0.2500 C   0  0  0  0  0  0
    7.7507    3.3501   -1.0226 C   0  0  0  0  0  0
   -2.2812   -1.2246    0.4928 H   0  0  0  0  0  0
   -1.6781   -5.0397   -0.2971 H   0  0  0  0  0  0
   -0.6767   -2.9694   -1.4136 H   0  0  0  0  0  0
   -0.0375   -1.7027   -0.3945 H   0  0  0  0  0  0
   -4.3029   -2.3575   -0.3847 H   0  0  0  0  0  0
   -3.3183   -3.3665   -1.4152 H   0  0  0  0  0  0
    0.3058   -3.9337    0.6352 H   0  0  0  0  0  0
   -0.6969   -2.9119    1.6375 H   0  0  0  0  0  0
   -3.3114   -3.3309    1.6400 H   0  0  0  0  0  0
   -3.9598   -4.5929    0.6220 H   0  0  0  0  0  0
   -1.4702   -0.1000   -1.6162 H   0  0  0  0  0  0
   -2.3159   -1.2886   -2.5599 H   0  0  0  0  0  0
    3.0435    2.5393    0.7255 H   0  0  0  0  0  0
    2.8291    4.5474    2.1390 H   0  0  0  0  0  0
    1.6342    5.2232    1.0584 H   0  0  0  0  0  0
    1.0520    3.8619   -1.1663 H   0  0  0  0  0  0
    1.8845    2.3513   -1.4410 H   0  0  0  0  0  0
    1.3412    2.6317    2.6551 H   0  0  0  0  0  0
    0.5150    4.1489    2.9468 H   0  0  0  0  0  0
    0.7600    1.3221    0.5110 H   0  0  0  0  0  0
   -0.4101    2.0179   -0.5905 H   0  0  0  0  0  0
   -1.4836    3.0557    2.8476 H   0  0  0  0  0  0
   -1.0314    1.4680    2.2845 H   0  0  0  0  0  0
   -2.7260    3.4026    0.5971 H   0  0  0  0  0  0
   -3.4363    2.3527    1.8250 H   0  0  0  0  0  0
   -4.5991   -0.9610   -3.1182 H   0  0  0  0  0  0
   -1.3690   -8.7955    2.3184 H   0  0  0  0  0  0
   -0.8132   -7.5267    3.3574 H   0  0  0  0  0  0
   -2.8040   -8.3771    0.5464 H   0  0  0  0  0  0
   -2.9377   -6.8256   -0.1890 H   0  0  0  0  0  0
    5.0559    6.4169   -2.1803 H   0  0  0  0  0  0
   -4.9591    2.7646    0.1526 H   0  0  0  0  0  0
    5.1288    1.8235    0.6067 H   0  0  0  0  0  0
   -6.6445    0.4353   -3.0264 H   0  0  0  0  0  0
    7.6228    5.2237   -2.1332 H   0  0  0  0  0  0
   -6.8078    2.2958   -1.3856 H   0  0  0  0  0  0
   -2.7834   -8.6915    4.3578 H   0  0  0  0  0  0
   -3.2033   -7.0154    4.0251 H   0  0  0  0  0  0
   -3.7659   -8.2957    2.9515 H   0  0  0  0  0  0
   -1.3514   -8.2660   -1.4693 H   0  0  0  0  0  0
   -0.4374   -6.9308   -0.7783 H   0  0  0  0  0  0
   -0.3690   -8.5233   -0.0326 H   0  0  0  0  0  0
    7.5625    1.5312    0.1386 H   0  0  0  0  0  0
    8.8039    3.2065   -1.2147 H   0  0  0  0  0  0
   -0.1513    3.0998    1.2262 N   0  3  0  0  0  0
   -0.5032    3.9509    0.8106 H   0  0  0  0  0  0
  1 23  1  0  0  0
  1 24  1  0  0  0
  2 17  2  0  0  0
  3 25  2  0  0  0
  4 14  1  0  0  0
  4 22  1  0  0  0
  4 25  1  0  0  0
  5 17  1  0  0  0
  5 27  1  0  0  0
  5 28  1  0  0  0
  6 25  1  0  0  0
  6 29  1  0  0  0
  6 69  1  0  0  0
  7  9  1  0  0  0
  7 10  1  0  0  0
  7 13  1  0  0  0
  7 39  1  0  0  0
  8 11  1  0  0  0
  8 12  1  0  0  0
  8 17  1  0  0  0
  8 40  1  0  0  0
  9 11  1  0  0  0
  9 41  1  0  0  0
  9 42  1  0  0  0
 10 12  1  0  0  0
 10 43  1  0  0  0
 10 44  1  0  0  0
 11 45  1  0  0  0
 11 46  1  0  0  0
 12 47  1  0  0  0
 12 48  1  0  0  0
 13 20  1  0  0  0
 13 49  1  0  0  0
 13 50  1  0  0  0
 14 15  1  0  0  0
 14 16  1  0  0  0
 14 51  1  0  0  0
 15 18  1  0  0  0
 15 52  1  0  0  0
 15 53  1  0  0  0
 16 19  1  0  0  0
 16 54  1  0  0  0
 16 55  1  0  0  0
 18 56  1  0  0  0
 18 57  1  0  0  0
 18 83  1  0  0  0
 19 58  1  0  0  0
 19 59  1  0  0  0
 19 83  1  0  0  0
 20 23  1  0  0  0
 20 26  2  0  0  0
 21 24  1  0  0  0
 21 60  1  0  0  0
 21 61  1  0  0  0
 21 83  1  0  0  0
 22 29  1  0  0  0
 22 31  2  0  0  0
 23 30  2  0  0  0
 24 62  1  0  0  0
 24 63  1  0  0  0
 26 32  1  0  0  0
 26 64  1  0  0  0
 27 35  1  0  0  0
 27 65  1  0  0  0
 27 66  1  0  0  0
 28 36  1  0  0  0
 28 67  1  0  0  0
 28 68  1  0  0  0
 29 33  2  0  0  0
 30 34  1  0  0  0
 30 70  1  0  0  0
 31 37  1  0  0  0
 31 71  1  0  0  0
 32 34  2  0  0  0
 32 72  1  0  0  0
 33 38  1  0  0  0
 33 73  1  0  0  0
 34 74  1  0  0  0
 35 75  1  0  0  0
 35 76  1  0  0  0
 35 77  1  0  0  0
 36 78  1  0  0  0
 36 79  1  0  0  0
 36 80  1  0  0  0
 37 38  2  0  0  0
 37 81  1  0  0  0
 38 82  1  0  0  0
 83 84  1  0  0  0
M  CHG  1  83   1
M  END
> <LID>
L020700

> <PC_CID>
20812163

> <Names>


> <CAS_Numbers>


$$$$
10436415
                    3D
 Structure written by MMmdl.
 76 79  0  0  1  0            999 V2000
    5.6393   -0.5920   -1.8128 O   0  0  0  0  0  0
   -1.5969    6.7367   -0.5853 O   0  0  0  0  0  0
   -0.2667    7.1626   -2.3841 O   0  0  0  0  0  0
    5.6315   -2.2782   -0.2810 N   0  0  0  0  0  0
    0.0774    5.2871   -1.0582 N   0  0  0  0  0  0
   -3.6581   -0.2079    0.2460 C   0  0  0  0  0  0
   -2.2138   -2.1417   -0.2565 C   0  0  0  0  0  0
   -2.6281    0.3374    1.2501 C   0  0  0  0  0  0
   -1.1592   -1.6408    0.7429 C   0  0  0  0  0  0
   -1.2188   -0.1247    0.8955 C   0  0  0  0  0  0
   -4.6444   -2.2251   -0.7638 C   0  0  0  0  0  0
   -0.1578    0.7063    0.7269 C   0  0  0  0  0  0
    1.1647    0.2019    0.3220 C   0  0  0  0  0  0
   -4.8221   -3.7246   -0.6016 C   0  0  0  0  0  0
   -0.2616    2.1593    0.9451 C   0  0  0  0  0  0
    1.3736   -0.2979   -0.9815 C   0  0  0  0  0  0
    2.2513    0.2633    1.2192 C   0  0  0  0  0  0
   -0.0672    3.0507   -0.1316 C   0  0  0  0  0  0
   -0.5098    2.6777    2.2344 C   0  0  0  0  0  0
   -4.3066   -4.6132   -1.5695 C   0  0  0  0  0  0
   -5.5086   -4.2362    0.5201 C   0  0  0  0  0  0
    2.6449   -0.7599   -1.3722 C   0  0  0  0  0  0
    3.5233   -0.1981    0.8298 C   0  0  0  0  0  0
    3.7222   -0.7333   -0.4619 C   0  0  0  0  0  0
   -0.1552    4.4445    0.0618 C   0  0  0  0  0  0
   -0.5754    4.0683    2.4409 C   0  0  0  0  0  0
   -4.4715   -6.0032   -1.4129 C   0  0  0  0  0  0
   -5.6732   -5.6264    0.6756 C   0  0  0  0  0  0
   -0.3934    4.9516    1.3603 C   0  0  0  0  0  0
   -5.1541   -6.5100   -0.2903 C   0  0  0  0  0  0
    5.0793   -1.2024   -0.9013 C   0  0  0  0  0  0
    6.9886   -2.7256   -0.6273 C   0  0  0  0  0  0
    4.9379   -3.1428    0.6882 C   0  0  0  0  0  0
    8.0482   -1.9886    0.2036 C   0  0  0  0  0  0
    4.0086   -4.1468   -0.0098 C   0  0  0  0  0  0
   -0.5709    6.4676   -1.4152 C   0  0  0  0  0  0
   -2.3885    7.8931   -0.7973 C   0  0  0  0  0  0
   -3.4987    0.2483   -0.7326 H   0  0  0  0  0  0
   -4.6592    0.0804    0.5692 H   0  0  0  0  0  0
   -2.1746   -3.2305   -0.2881 H   0  0  0  0  0  0
   -1.9732   -1.7874   -1.2603 H   0  0  0  0  0  0
   -2.8632   -0.0205    2.2532 H   0  0  0  0  0  0
   -2.7155    1.4221    1.2831 H   0  0  0  0  0  0
   -0.1746   -1.9987    0.4473 H   0  0  0  0  0  0
   -1.3501   -2.0822    1.7219 H   0  0  0  0  0  0
   -5.5977   -1.7522   -0.5231 H   0  0  0  0  0  0
   -4.4303   -1.9767   -1.8047 H   0  0  0  0  0  0
    0.5559   -0.3270   -1.6869 H   0  0  0  0  0  0
    2.1113    0.6668    2.2116 H   0  0  0  0  0  0
    0.1414    2.6589   -1.1169 H   0  0  0  0  0  0
   -0.6433    2.0072    3.0710 H   0  0  0  0  0  0
   -3.7810   -4.2335   -2.4336 H   0  0  0  0  0  0
   -5.9108   -3.5654    1.2653 H   0  0  0  0  0  0
    2.7889   -1.1395   -2.3737 H   0  0  0  0  0  0
    4.3465   -0.1384    1.5273 H   0  0  0  0  0  0
   -0.7565    4.4587    3.4315 H   0  0  0  0  0  0
   -4.0747   -6.6811   -2.1544 H   0  0  0  0  0  0
   -6.1984   -6.0155    1.5356 H   0  0  0  0  0  0
   -0.4241    6.0156    1.5426 H   0  0  0  0  0  0
   -5.2808   -7.5760   -0.1709 H   0  0  0  0  0  0
    0.7539    4.9649   -1.7347 H   0  0  0  0  0  0
    7.0850   -3.8005   -0.4679 H   0  0  0  0  0  0
    7.1878   -2.5828   -1.6908 H   0  0  0  0  0  0
    5.6696   -3.6924    1.2820 H   0  0  0  0  0  0
    4.3793   -2.5658    1.4221 H   0  0  0  0  0  0
    9.0494   -2.3385   -0.0481 H   0  0  0  0  0  0
    8.0180   -0.9139    0.0218 H   0  0  0  0  0  0
    7.8975   -2.1529    1.2710 H   0  0  0  0  0  0
    3.5352   -4.8051    0.7188 H   0  0  0  0  0  0
    3.2150   -3.6430   -0.5617 H   0  0  0  0  0  0
    4.5603   -4.7724   -0.7120 H   0  0  0  0  0  0
   -3.1658    7.9543   -0.0357 H   0  0  0  0  0  0
   -1.7807    8.7967   -0.7371 H   0  0  0  0  0  0
   -2.8711    7.8602   -1.7748 H   0  0  0  0  0  0
   -3.5790   -1.6856    0.1182 N   0  3  2  0  0  0
   -3.7630   -2.0576    1.0391 H   0  0  0  0  0  0
  1 31  2  0  0  0
  2 36  1  0  0  0
  2 37  1  0  0  0
  3 36  2  0  0  0
  4 31  1  0  0  0
  4 32  1  0  0  0
  4 33  1  0  0  0
  5 25  1  0  0  0
  5 36  1  0  0  0
  5 61  1  0  0  0
  6  8  1  0  0  0
  6 38  1  0  0  0
  6 39  1  0  0  0
  6 75  1  0  0  0
  7  9  1  0  0  0
  7 40  1  0  0  0
  7 41  1  0  0  0
  7 75  1  0  0  0
  8 10  1  0  0  0
  8 42  1  0  0  0
  8 43  1  0  0  0
  9 10  1  0  0  0
  9 44  1  0  0  0
  9 45  1  0  0  0
 10 12  2  0  0  0
 11 14  1  0  0  0
 11 46  1  0  0  0
 11 47  1  0  0  0
 11 75  1  0  0  0
 12 13  1  0  0  0
 12 15  1  0  0  0
 13 16  2  0  0  0
 13 17  1  0  0  0
 14 20  2  0  0  0
 14 21  1  0  0  0
 15 18  2  0  0  0
 15 19  1  0  0  0
 16 22  1  0  0  0
 16 48  1  0  0  0
 17 23  2  0  0  0
 17 49  1  0  0  0
 18 25  1  0  0  0
 18 50  1  0  0  0
 19 26  2  0  0  0
 19 51  1  0  0  0
 20 27  1  0  0  0
 20 52  1  0  0  0
 21 28  2  0  0  0
 21 53  1  0  0  0
 22 24  2  0  0  0
 22 54  1  0  0  0
 23 24  1  0  0  0
 23 55  1  0  0  0
 24 31  1  0  0  0
 25 29  2  0  0  0
 26 29  1  0  0  0
 26 56  1  0  0  0
 27 30  2  0  0  0
 27 57  1  0  0  0
 28 30  1  0  0  0
 28 58  1  0  0  0
 29 59  1  0  0  0
 30 60  1  0  0  0
 32 34  1  0  0  0
 32 62  1  0  0  0
 32 63  1  0  0  0
 33 35  1  0  0  0
 33 64  1  0  0  0
 33 65  1  0  0  0
 34 66  1  0  0  0
 34 67  1  0  0  0
 34 68  1  0  0  0
 35 69  1  0  0  0
 35 70  1  0  0  0
 35 71  1  0  0  0
 37 72  1  0  0  0
 37 73  1  0  0  0
 37 74  1  0  0  0
 75 76  1  0  0  0
M  CHG  1  75   1
M  END
> <LID>
L023135

> <PC_CID>
10436415

> <Names>


> <CAS_Numbers>


$$$$
60698
                    3D
 Structure written by MMmdl.
 53 56  0  0  1  0            999 V2000
   -2.4783    1.1148   -2.6741 O   0  0  0  0  0  0
   -4.6806   -1.0398   -1.0324 O   0  0  0  0  0  0
   -2.1758    0.4595   -0.5154 N   0  0  0  0  0  0
   -2.3714   -1.1773    1.2628 N   0  0  0  0  0  0
   -4.2745    0.4837    2.5327 N   0  0  0  0  0  0
   -0.7242    0.7583   -0.5570 C   0  0  0  0  0  0
   -0.1468    1.2763    0.7796 C   0  0  0  0  0  0
    0.0878   -0.4670   -1.0185 C   0  0  0  0  0  0
    1.3548    1.5773    0.6441 C   0  0  0  0  0  0
    1.5879   -0.1375   -1.1027 C   0  0  0  0  0  0
    3.5727    0.5986    0.1946 C   0  0  0  0  0  0
    4.3725   -0.7129    0.2874 C   0  0  0  0  0  0
   -2.7391    0.0066    0.7132 C   0  0  0  0  0  0
   -2.9189    0.5858   -1.6524 C   0  0  0  0  0  0
    5.8671   -0.4611    0.3393 C   0  0  0  0  0  0
   -4.3257    0.1118   -1.6770 C   0  0  0  0  0  0
   -3.6907    0.8322    1.3651 C   0  0  0  0  0  0
    6.5217   -0.3290    1.5823 C   0  0  0  0  0  0
    6.6089   -0.3515   -0.8559 C   0  0  0  0  0  0
   -5.4119    0.6240   -2.3347 C   0  0  0  0  0  0
   -2.9548   -1.5301    2.4292 C   0  0  0  0  0  0
    7.9091   -0.0902    1.6292 C   0  0  0  0  0  0
    7.9963   -0.1127   -0.8081 C   0  0  0  0  0  0
    8.6466    0.0178    0.4342 C   0  0  0  0  0  0
   -3.9047   -0.7023    3.0616 C   0  0  0  0  0  0
   -6.5073   -0.2377   -2.0511 C   0  0  0  0  0  0
   -6.0085   -1.2293   -1.2569 C   0  0  0  0  0  0
   -0.5479    1.5630   -1.2735 H   0  0  0  0  0  0
   -0.6757    2.1776    1.0920 H   0  0  0  0  0  0
   -0.2778    0.5448    1.5774 H   0  0  0  0  0  0
   -0.2626   -0.8059   -1.9942 H   0  0  0  0  0  0
   -0.0639   -1.3003   -0.3313 H   0  0  0  0  0  0
    1.5160    2.3944   -0.0612 H   0  0  0  0  0  0
    1.7366    1.9127    1.6094 H   0  0  0  0  0  0
    2.1261   -1.0368   -1.3997 H   0  0  0  0  0  0
    1.7632    0.6048   -1.8831 H   0  0  0  0  0  0
    3.8599    1.1670   -0.6915 H   0  0  0  0  0  0
    3.8418    1.2141    1.0545 H   0  0  0  0  0  0
    4.0744   -1.2715    1.1758 H   0  0  0  0  0  0
    4.1673   -1.3606   -0.5646 H   0  0  0  0  0  0
   -3.9878    1.7819    0.9445 H   0  0  0  0  0  0
    5.9630   -0.4092    2.5034 H   0  0  0  0  0  0
    6.1170   -0.4491   -1.8128 H   0  0  0  0  0  0
   -5.4172    1.5157   -2.9444 H   0  0  0  0  0  0
   -2.6622   -2.4760    2.8602 H   0  0  0  0  0  0
    8.4079    0.0102    2.5820 H   0  0  0  0  0  0
    8.5618   -0.0295   -1.7246 H   0  0  0  0  0  0
    9.7105    0.2008    0.4706 H   0  0  0  0  0  0
   -4.3662   -0.9916    3.9942 H   0  0  0  0  0  0
   -7.5284   -0.1476   -2.3914 H   0  0  0  0  0  0
   -6.4352   -2.1061   -0.7922 H   0  0  0  0  0  0
    2.1044    0.3742    0.1958 N   0  3  0  0  0  0
    1.9247   -0.3401    0.8873 H   0  0  0  0  0  0
  1 14  2  0  0  0
  2 16  1  0  0  0
  2 27  1  0  0  0
  3  6  1  0  0  0
  3 13  1  0  0  0
  3 14  1  0  0  0
  4 13  2  0  0  0
  4 21  1  0  0  0
  5 17  2  0  0  0
  5 25  1  0  0  0
  6  7  1  0  0  0
  6  8  1  0  0  0
  6 28  1  0  0  0
  7  9  1  0  0  0
  7 29  1  0  0  0
  7 30  1  0  0  0
  8 10  1  0  0  0
  8 31  1  0  0  0
  8 32  1  0  0  0
  9 33  1  0  0  0
  9 34  1  0  0  0
  9 52  1  0  0  0
 10 35  1  0  0  0
 10 36  1  0  0  0
 10 52  1  0  0  0
 11 12  1  0  0  0
 11 37  1  0  0  0
 11 38  1  0  0  0
 11 52  1  0  0  0
 12 15  1  0  0  0
 12 39  1  0  0  0
 12 40  1  0  0  0
 13 17  1  0  0  0
 14 16  1  0  0  0
 15 18  2  0  0  0
 15 19  1  0  0  0
 16 20  2  0  0  0
 17 41  1  0  0  0
 18 22  1  0  0  0
 18 42  1  0  0  0
 19 23  2  0  0  0
 19 43  1  0  0  0
 20 26  1  0  0  0
 20 44  1  0  0  0
 21 25  2  0  0  0
 21 45  1  0  0  0
 22 24  2  0  0  0
 22 46  1  0  0  0
 23 24  1  0  0  0
 23 47  1  0  0  0
 24 48  1  0  0  0
 25 49  1  0  0  0
 26 27  2  0  0  0
 26 50  1  0  0  0
 27 51  1  0  0  0
 52 53  1  0  0  0
M  CHG  1  52   1
M  END
> <LID>
L003834

> <PC_CID>
60698

> <Names>
A-3508 hydrochloride

> <CAS_Numbers>
117523-47-4;118142-72-6;119413-53-5

$$$$
22380661
                    3D
 Structure written by MMmdl.
 75 79  0  0  1  0            999 V2000
    2.2716   -3.2881    0.8761 O   0  0  0  0  0  0
   -5.3441    0.0903    2.2714 O   0  0  0  0  0  0
    0.0079    2.6926    1.3504 O   0  0  0  0  0  0
   -3.5065    0.2238    0.8724 N   0  0  0  0  0  0
   -5.1076    1.7034    0.6699 N   0  0  0  0  0  0
    1.1674    3.9552   -0.1453 N   0  0  0  0  0  0
   -2.7129   -0.9003    1.3930 C   0  0  0  0  0  0
   -1.3977   -0.4410    2.0411 C   0  0  0  0  0  0
   -2.4255   -1.9890    0.3433 C   0  0  0  0  0  0
   -0.6662   -1.6406    2.6643 C   0  0  0  0  0  0
   -1.6588   -3.1605    0.9850 C   0  0  0  0  0  0
    0.3932   -3.8255    2.2036 C   0  0  0  0  0  0
   -3.1305    1.1088   -0.1628 C   0  0  0  0  0  0
   -4.7124    0.6167    1.3571 C   0  0  0  0  0  0
   -4.1451    2.0381   -0.2782 C   0  0  0  0  0  0
    1.3896   -4.3593    1.1672 C   0  0  0  0  0  0
   -1.9956    1.1676   -0.9928 C   0  0  0  0  0  0
   -4.1128    3.0886   -1.2080 C   0  0  0  0  0  0
   -1.9337    2.2147   -1.9433 C   0  0  0  0  0  0
   -2.9792    3.1668   -2.0487 C   0  0  0  0  0  0
    3.1208   -3.4191   -0.1979 C   0  0  0  0  0  0
    3.4502   -2.2477   -0.9254 C   0  0  0  0  0  0
    3.6749   -4.6652   -0.5781 C   0  0  0  0  0  0
    2.8554   -0.9421   -0.5774 C   0  0  0  0  0  0
    4.3271   -2.3511   -2.0283 C   0  0  0  0  0  0
    4.5493   -4.7495   -1.6768 C   0  0  0  0  0  0
    4.8761   -3.5912   -2.4026 C   0  0  0  0  0  0
    2.8997   -0.4369    0.7417 C   0  0  0  0  0  0
    2.1909   -0.1818   -1.5632 C   0  0  0  0  0  0
    1.6041    1.5297    0.0836 C   0  0  0  0  0  0
    2.2711    0.7787    1.0733 C   0  0  0  0  0  0
    1.5673    1.0367   -1.2378 C   0  0  0  0  0  0
    0.8660    2.7810    0.4705 C   0  0  0  0  0  0
    0.4238    5.1778    0.1981 C   0  0  0  0  0  0
    2.3054    4.1735   -1.0548 C   0  0  0  0  0  0
    0.9397    5.8207    1.4954 C   0  0  0  0  0  0
    1.8686    4.3679   -2.5174 C   0  0  0  0  0  0
   -3.2968   -1.3802    2.1809 H   0  0  0  0  0  0
   -1.5970    0.3083    2.8081 H   0  0  0  0  0  0
   -0.7498    0.0335    1.3056 H   0  0  0  0  0  0
   -1.8428   -1.5946   -0.4871 H   0  0  0  0  0  0
   -3.3613   -2.3524   -0.0827 H   0  0  0  0  0  0
   -1.2497   -2.0526    3.4893 H   0  0  0  0  0  0
    0.2812   -1.2984    3.0831 H   0  0  0  0  0  0
   -1.4158   -3.8976    0.2191 H   0  0  0  0  0  0
   -2.2976   -3.6626    1.7136 H   0  0  0  0  0  0
    0.9616   -3.4944    3.0742 H   0  0  0  0  0  0
   -0.2606   -4.6235    2.5584 H   0  0  0  0  0  0
    1.9392   -5.2003    1.5908 H   0  0  0  0  0  0
    0.8777   -4.7049    0.2677 H   0  0  0  0  0  0
   -5.9625    2.2215    0.8098 H   0  0  0  0  0  0
   -1.1915    0.4540   -0.9149 H   0  0  0  0  0  0
   -4.9169    3.8062   -1.2786 H   0  0  0  0  0  0
   -1.0790    2.2939   -2.5978 H   0  0  0  0  0  0
   -2.9094    3.9588   -2.7798 H   0  0  0  0  0  0
    3.4487   -5.5675   -0.0309 H   0  0  0  0  0  0
    4.5835   -1.4691   -2.5972 H   0  0  0  0  0  0
    4.9712   -5.7025   -1.9608 H   0  0  0  0  0  0
    5.5467   -3.6531   -3.2471 H   0  0  0  0  0  0
    3.4038   -0.9964    1.5163 H   0  0  0  0  0  0
    2.1317   -0.5482   -2.5778 H   0  0  0  0  0  0
    2.2969    1.1285    2.0955 H   0  0  0  0  0  0
    1.0327    1.5685   -2.0071 H   0  0  0  0  0  0
    0.4978    5.9082   -0.6071 H   0  0  0  0  0  0
   -0.6422    4.9598    0.2878 H   0  0  0  0  0  0
    2.8451    5.0635   -0.7285 H   0  0  0  0  0  0
    3.0408    3.3716   -0.9941 H   0  0  0  0  0  0
    0.3886    6.7346    1.7176 H   0  0  0  0  0  0
    0.8242    5.1524    2.3490 H   0  0  0  0  0  0
    1.9950    6.0825    1.4156 H   0  0  0  0  0  0
    2.7398    4.4766   -3.1635 H   0  0  0  0  0  0
    1.2879    3.5273   -2.8913 H   0  0  0  0  0  0
    1.2616    5.2639   -2.6436 H   0  0  0  0  0  0
   -0.4110   -2.7023    1.6553 N   0  3  0  0  0  0
    0.1636   -2.2678    0.9462 H   0  0  0  0  0  0
  1 16  1  0  0  0
  1 21  1  0  0  0
  2 14  2  0  0  0
  3 33  2  0  0  0
  4  7  1  0  0  0
  4 13  1  0  0  0
  4 14  1  0  0  0
  5 14  1  0  0  0
  5 15  1  0  0  0
  5 51  1  0  0  0
  6 33  1  0  0  0
  6 34  1  0  0  0
  6 35  1  0  0  0
  7  8  1  0  0  0
  7  9  1  0  0  0
  7 38  1  0  0  0
  8 10  1  0  0  0
  8 39  1  0  0  0
  8 40  1  0  0  0
  9 11  1  0  0  0
  9 41  1  0  0  0
  9 42  1  0  0  0
 10 43  1  0  0  0
 10 44  1  0  0  0
 10 74  1  0  0  0
 11 45  1  0  0  0
 11 46  1  0  0  0
 11 74  1  0  0  0
 12 16  1  0  0  0
 12 47  1  0  0  0
 12 48  1  0  0  0
 12 74  1  0  0  0
 13 15  1  0  0  0
 13 17  2  0  0  0
 15 18  2  0  0  0
 16 49  1  0  0  0
 16 50  1  0  0  0
 17 19  1  0  0  0
 17 52  1  0  0  0
 18 20  1  0  0  0
 18 53  1  0  0  0
 19 20  2  0  0  0
 19 54  1  0  0  0
 20 55  1  0  0  0
 21 22  1  0  0  0
 21 23  2  0  0  0
 22 24  1  0  0  0
 22 25  2  0  0  0
 23 26  1  0  0  0
 23 56  1  0  0  0
 24 28  2  0  0  0
 24 29  1  0  0  0
 25 27  1  0  0  0
 25 57  1  0  0  0
 26 27  2  0  0  0
 26 58  1  0  0  0
 27 59  1  0  0  0
 28 31  1  0  0  0
 28 60  1  0  0  0
 29 32  2  0  0  0
 29 61  1  0  0  0
 30 31  2  0  0  0
 30 32  1  0  0  0
 30 33  1  0  0  0
 31 62  1  0  0  0
 32 63  1  0  0  0
 34 36  1  0  0  0
 34 64  1  0  0  0
 34 65  1  0  0  0
 35 37  1  0  0  0
 35 66  1  0  0  0
 35 67  1  0  0  0
 36 68  1  0  0  0
 36 69  1  0  0  0
 36 70  1  0  0  0
 37 71  1  0  0  0
 37 72  1  0  0  0
 37 73  1  0  0  0
 74 75  1  0  0  0
M  CHG  1  74   1
M  END
> <LID>
L020697

> <PC_CID>
22380661

> <Names>


> <CAS_Numbers>


$$$$
10301201
                    3D
 Structure written by MMmdl.
 76 81  0  0  1  0            999 V2000
   -5.1576    6.2427   -0.5484 O   0  0  0  0  0  0
   -3.8164    7.0557   -2.2151 O   0  0  0  0  0  0
    5.7548   -2.8692    1.2455 O   0  0  0  0  0  0
   -0.2050   -1.3126   -0.2566 N   0  0  0  0  0  0
    5.0050   -4.9865    0.8649 N   0  0  0  0  0  0
   -0.3423    1.6673    2.2456 C   0  0  2  0  0  0
   -2.3257    1.6648    1.0827 C   0  0  1  0  0  0
   -0.7824   -0.3754    0.7279 C   0  0  0  0  0  0
    0.2893    0.5224    1.4214 C   0  0  0  0  0  0
   -1.9116    0.5204    0.1300 C   0  0  0  0  0  0
   -1.3770    1.1430    3.2591 C   0  0  0  0  0  0
   -2.7041    1.1390    2.4800 C   0  0  0  0  0  0
   -1.3792    3.8827    1.7772 C   0  0  0  0  0  0
   -1.9824    4.7431    0.6819 C   0  0  0  0  0  0
    0.9902   -1.8770    0.0280 C   0  0  0  0  0  0
   -1.0360   -1.8873   -1.1555 C   0  0  0  0  0  0
   -3.3676    5.0375    0.6934 C   0  0  0  0  0  0
   -1.1534    5.2516   -0.3523 C   0  0  0  0  0  0
    2.1120   -1.6027   -0.7828 C   0  0  0  0  0  0
    1.1341   -2.7322    1.1428 C   0  0  0  0  0  0
   -0.8661   -1.6380   -2.5348 C   0  0  0  0  0  0
   -2.0832   -2.7348   -0.7280 C   0  0  0  0  0  0
   -3.8799    5.8333   -0.3440 C   0  0  0  0  0  0
   -1.6943    6.0512   -1.3848 C   0  0  0  0  0  0
   -3.0715    6.3232   -1.3488 C   0  0  0  0  0  0
    3.3612   -2.1813   -0.4875 C   0  0  0  0  0  0
    2.3832   -3.3110    1.4377 C   0  0  0  0  0  0
   -1.7324   -2.2281   -3.4756 C   0  0  0  0  0  0
   -2.9490   -3.3244   -1.6694 C   0  0  0  0  0  0
    3.5000   -3.0537    0.6125 C   0  0  0  0  0  0
   -2.7739   -3.0712   -3.0433 C   0  0  0  0  0  0
   -5.1308    7.0138   -1.7219 C   0  0  0  0  0  0
    4.8453   -3.6386    0.9329 C   0  0  0  0  0  0
    6.2824   -5.6081    1.2439 C   0  0  0  0  0  0
    4.0066   -5.9297    0.3345 C   0  0  0  0  0  0
    6.3336   -5.9053    2.7490 C   0  0  0  0  0  0
    4.0115   -5.9570   -1.2010 C   0  0  0  0  0  0
    0.4463    2.2420    2.7335 H   0  0  0  0  0  0
   -3.1421    2.2286    0.6311 H   0  0  0  0  0  0
   -1.2360   -0.9948    1.5024 H   0  0  0  0  0  0
    0.9227   -0.0769    2.0760 H   0  0  0  0  0  0
    0.9510    0.9552    0.6691 H   0  0  0  0  0  0
   -1.5784    0.9536   -0.8146 H   0  0  0  0  0  0
   -2.7911   -0.0803   -0.1039 H   0  0  0  0  0  0
   -1.4509    1.8201    4.1110 H   0  0  0  0  0  0
   -1.1160    0.1586    3.6497 H   0  0  0  0  0  0
   -3.1665    0.1519    2.4424 H   0  0  0  0  0  0
   -3.4167    1.8118    2.9589 H   0  0  0  0  0  0
   -2.0228    3.8877    2.6580 H   0  0  0  0  0  0
   -0.4356    4.3380    2.0810 H   0  0  0  0  0  0
   -4.0171    4.6624    1.4709 H   0  0  0  0  0  0
   -0.0965    5.0280   -0.3568 H   0  0  0  0  0  0
    2.0207   -0.9406   -1.6313 H   0  0  0  0  0  0
    0.2865   -2.9460    1.7775 H   0  0  0  0  0  0
   -0.0730   -0.9893   -2.8767 H   0  0  0  0  0  0
   -2.2246   -2.9372    0.3237 H   0  0  0  0  0  0
   -1.0706    6.4410   -2.1757 H   0  0  0  0  0  0
    4.2127   -1.9567   -1.1136 H   0  0  0  0  0  0
    2.4800   -3.9546    2.3002 H   0  0  0  0  0  0
   -1.5980   -2.0330   -4.5293 H   0  0  0  0  0  0
   -3.7471   -3.9719   -1.3372 H   0  0  0  0  0  0
   -3.4378   -3.5237   -3.7652 H   0  0  0  0  0  0
   -5.7874    6.5664   -2.4688 H   0  0  0  0  0  0
   -5.4709    8.0263   -1.5019 H   0  0  0  0  0  0
    6.4334   -6.5332    0.6857 H   0  0  0  0  0  0
    7.1245   -4.9730    0.9636 H   0  0  0  0  0  0
    4.2140   -6.9341    0.7066 H   0  0  0  0  0  0
    3.0053   -5.7119    0.6999 H   0  0  0  0  0  0
    7.2769   -6.3811    3.0175 H   0  0  0  0  0  0
    6.2451   -4.9913    3.3372 H   0  0  0  0  0  0
    5.5269   -6.5757    3.0468 H   0  0  0  0  0  0
    3.2958   -6.6887   -1.5761 H   0  0  0  0  0  0
    3.7410   -4.9880   -1.6207 H   0  0  0  0  0  0
    4.9946   -6.2270   -1.5877 H   0  0  0  0  0  0
   -1.1262    2.4957    1.3105 N   0  3  0  0  0  0
   -0.6140    2.5724    0.4434 H   0  0  0  0  0  0
  1 23  1  0  0  0
  1 32  1  0  0  0
  2 25  1  0  0  0
  2 32  1  0  0  0
  3 33  2  0  0  0
  4  8  1  0  0  0
  4 15  1  0  0  0
  4 16  1  0  0  0
  5 33  1  0  0  0
  5 34  1  0  0  0
  5 35  1  0  0  0
  6  9  1  0  0  0
  6 11  1  0  0  0
  6 38  1  0  0  0
  6 75  1  0  0  0
  7 10  1  0  0  0
  7 12  1  0  0  0
  7 39  1  0  0  0
  7 75  1  0  0  0
  8  9  1  0  0  0
  8 10  1  0  0  0
  8 40  1  0  0  0
  9 41  1  0  0  0
  9 42  1  0  0  0
 10 43  1  0  0  0
 10 44  1  0  0  0
 11 12  1  0  0  0
 11 45  1  0  0  0
 11 46  1  0  0  0
 12 47  1  0  0  0
 12 48  1  0  0  0
 13 14  1  0  0  0
 13 49  1  0  0  0
 13 50  1  0  0  0
 13 75  1  0  0  0
 14 17  2  0  0  0
 14 18  1  0  0  0
 15 19  2  0  0  0
 15 20  1  0  0  0
 16 21  2  0  0  0
 16 22  1  0  0  0
 17 23  1  0  0  0
 17 51  1  0  0  0
 18 24  2  0  0  0
 18 52  1  0  0  0
 19 26  1  0  0  0
 19 53  1  0  0  0
 20 27  2  0  0  0
 20 54  1  0  0  0
 21 28  1  0  0  0
 21 55  1  0  0  0
 22 29  2  0  0  0
 22 56  1  0  0  0
 23 25  2  0  0  0
 24 25  1  0  0  0
 24 57  1  0  0  0
 26 30  2  0  0  0
 26 58  1  0  0  0
 27 30  1  0  0  0
 27 59  1  0  0  0
 28 31  2  0  0  0
 28 60  1  0  0  0
 29 31  1  0  0  0
 29 61  1  0  0  0
 30 33  1  0  0  0
 31 62  1  0  0  0
 32 63  1  0  0  0
 32 64  1  0  0  0
 34 36  1  0  0  0
 34 65  1  0  0  0
 34 66  1  0  0  0
 35 37  1  0  0  0
 35 67  1  0  0  0
 35 68  1  0  0  0
 36 69  1  0  0  0
 36 70  1  0  0  0
 36 71  1  0  0  0
 37 72  1  0  0  0
 37 73  1  0  0  0
 37 74  1  0  0  0
 75 76  1  0  0  0
M  CHG  1  75   1
M  END
> <LID>
L019714

> <PC_CID>
10301201

> <Names>


> <CAS_Numbers>


$$$$
44210522
                    3D
 Structure written by MMmdl.
 71 72  0  0  1  0            999 V2000
    2.7393   -1.6190   -2.4036 O   0  0  0  0  0  0
   -2.4224   -2.9029   -0.8439 O   0  0  0  0  0  0
    4.4909    3.3917    2.6564 O   0  0  0  0  0  0
   -3.1527    0.6559    1.8088 O   0  0  0  0  0  0
    2.4274   -1.0544   -0.2229 N   0  0  0  0  0  0
   -1.3146   -0.9496   -0.6406 N   0  0  0  0  0  0
   -3.6681    0.5155   -0.3999 N   0  0  0  0  0  0
    1.0966   -0.4382   -0.2526 C   0  0  0  0  0  0
    0.0411   -1.4799   -0.7086 C   0  0  0  0  0  0
    0.8085    0.0208    1.1917 C   0  0  0  0  0  0
    1.0995    0.8046   -1.1716 C   0  0  0  0  0  0
    4.5344   -2.1067   -0.8859 C   0  0  2  0  0  0
    3.1395   -1.5719   -1.2405 C   0  0  0  0  0  0
    5.6111   -0.9935   -0.8665 C   0  0  0  0  0  0
   -3.7857   -0.9416   -0.5770 C   0  0  1  0  0  0
    5.3443    0.1906    0.0719 C   0  0  0  0  0  0
   -2.4375   -1.6815   -0.6932 C   0  0  0  0  0  0
   -4.7817   -1.6051    0.4083 C   0  0  0  0  0  0
    5.5034    0.0463    1.4789 C   0  0  0  0  0  0
    4.9136    1.4439   -0.4490 C   0  0  0  0  0  0
   -6.2023   -1.0721    0.3284 C   0  0  0  0  0  0
    5.2109    1.1277    2.3355 C   0  0  0  0  0  0
    4.6305    2.5127    0.4264 C   0  0  0  0  0  0
    5.9773   -1.2506    2.1171 C   0  0  0  0  0  0
    4.7401    1.6839   -1.9410 C   0  0  0  0  0  0
    4.7730    2.3557    1.8146 C   0  0  0  0  0  0
   -7.0371   -1.4431   -0.7468 C   0  0  0  0  0  0
   -6.6939   -0.2031    1.3257 C   0  0  0  0  0  0
   -3.4151    1.1922    0.7338 C   0  0  0  0  0  0
   -8.3526   -0.9459   -0.8260 C   0  0  0  0  0  0
   -8.0091    0.2944    1.2457 C   0  0  0  0  0  0
   -3.4379    2.7120    0.6262 C   0  0  0  0  0  0
   -8.8387   -0.0768    0.1699 C   0  0  0  0  0  0
    0.2235   -1.8014   -1.7344 H   0  0  0  0  0  0
    0.1108   -2.3721   -0.0832 H   0  0  0  0  0  0
    2.8731   -1.0584    0.6835 H   0  0  0  0  0  0
   -0.1432    0.5472    1.2712 H   0  0  0  0  0  0
    0.7709   -0.8259    1.8783 H   0  0  0  0  0  0
    1.5810    0.7017    1.5528 H   0  0  0  0  0  0
    0.1539    1.3446   -1.1161 H   0  0  0  0  0  0
    1.8849    1.5051   -0.8868 H   0  0  0  0  0  0
    1.2554    0.5410   -2.2176 H   0  0  0  0  0  0
    4.4709   -2.5700    0.0977 H   0  0  0  0  0  0
    5.7729   -0.6424   -1.8844 H   0  0  0  0  0  0
    6.5728   -1.4285   -0.5968 H   0  0  0  0  0  0
   -1.4120    0.0474   -0.5151 H   0  0  0  0  0  0
   -4.2231   -1.0517   -1.5699 H   0  0  0  0  0  0
   -4.4223   -1.5317    1.4347 H   0  0  0  0  0  0
   -4.8363   -2.6760    0.2070 H   0  0  0  0  0  0
    4.2434   -3.9188   -1.7856 H   0  0  0  0  0  0
    4.9639   -2.8035   -2.7555 H   0  0  0  0  0  0
   -3.8556    1.0688   -1.2235 H   0  0  0  0  0  0
    5.3221    1.0183    3.4046 H   0  0  0  0  0  0
    4.2988    3.4618    0.0307 H   0  0  0  0  0  0
    5.1665   -1.9766    2.1606 H   0  0  0  0  0  0
    6.8179   -1.6872    1.5799 H   0  0  0  0  0  0
    6.3134   -1.0783    3.1402 H   0  0  0  0  0  0
    4.3223    2.6713   -2.1394 H   0  0  0  0  0  0
    5.7019    1.6250   -2.4509 H   0  0  0  0  0  0
    4.0643    0.9522   -2.3819 H   0  0  0  0  0  0
   -6.6698   -2.1087   -1.5143 H   0  0  0  0  0  0
   -6.0626    0.0878    2.1527 H   0  0  0  0  0  0
   -8.9887   -1.2313   -1.6509 H   0  0  0  0  0  0
   -8.3813    0.9608    2.0098 H   0  0  0  0  0  0
   -4.4120    3.0543    0.2756 H   0  0  0  0  0  0
   -3.2440    3.1716    1.5959 H   0  0  0  0  0  0
   -2.6756    3.0559   -0.0733 H   0  0  0  0  0  0
   -9.8474    0.3046    0.1089 H   0  0  0  0  0  0
    4.2139    4.1744    2.2054 H   0  0  0  0  0  0
    4.9305   -3.1791   -1.8182 N   0  3  0  0  0  0
    5.8366   -3.5439   -1.5622 H   0  0  0  0  0  0
  1 13  2  0  0  0
  2 17  2  0  0  0
  3 26  1  0  0  0
  3 69  1  0  0  0
  4 29  2  0  0  0
  5  8  1  0  0  0
  5 13  1  0  0  0
  5 36  1  0  0  0
  6  9  1  0  0  0
  6 17  1  0  0  0
  6 46  1  0  0  0
  7 15  1  0  0  0
  7 29  1  0  0  0
  7 52  1  0  0  0
  8  9  1  0  0  0
  8 10  1  0  0  0
  8 11  1  0  0  0
  9 34  1  0  0  0
  9 35  1  0  0  0
 10 37  1  0  0  0
 10 38  1  0  0  0
 10 39  1  0  0  0
 11 40  1  0  0  0
 11 41  1  0  0  0
 11 42  1  0  0  0
 12 13  1  0  0  0
 12 14  1  0  0  0
 12 43  1  0  0  0
 12 70  1  0  0  0
 14 16  1  0  0  0
 14 44  1  0  0  0
 14 45  1  0  0  0
 15 17  1  0  0  0
 15 18  1  0  0  0
 15 47  1  0  0  0
 16 19  2  0  0  0
 16 20  1  0  0  0
 18 21  1  0  0  0
 18 48  1  0  0  0
 18 49  1  0  0  0
 19 22  1  0  0  0
 19 24  1  0  0  0
 20 23  2  0  0  0
 20 25  1  0  0  0
 21 27  2  0  0  0
 21 28  1  0  0  0
 22 26  2  0  0  0
 22 53  1  0  0  0
 23 26  1  0  0  0
 23 54  1  0  0  0
 24 55  1  0  0  0
 24 56  1  0  0  0
 24 57  1  0  0  0
 25 58  1  0  0  0
 25 59  1  0  0  0
 25 60  1  0  0  0
 27 30  1  0  0  0
 27 61  1  0  0  0
 28 31  2  0  0  0
 28 62  1  0  0  0
 29 32  1  0  0  0
 30 33  2  0  0  0
 30 63  1  0  0  0
 31 33  1  0  0  0
 31 64  1  0  0  0
 32 65  1  0  0  0
 32 66  1  0  0  0
 32 67  1  0  0  0
 33 68  1  0  0  0
 50 70  1  0  0  0
 51 70  1  0  0  0
 70 71  1  0  0  0
M  CHG  1  70   1
M  END
> <LID>
L007449

> <PC_CID>
44210522

> <Names>


> <CAS_Numbers>


$$$$
11178616
                    3D
 Structure written by MMmdl.
 66 69  0  0  1  0            999 V2000
    2.3294   -3.8487   -2.5544 F   0  0  0  0  0  0
   -2.2086   -0.7542   -1.6752 O   0  0  0  0  0  0
    3.7530   -2.2014    0.5742 O   0  0  0  0  0  0
    4.7411   -0.1510    0.6756 N   0  0  0  0  0  0
   -2.1102    2.4021    0.4111 C   0  0  0  0  0  0
   -3.5462    2.9033    0.2632 C   0  0  0  0  0  0
   -1.1158    3.5619    0.4439 C   0  0  0  0  0  0
   -3.8855    3.9524    1.3342 C   0  0  0  0  0  0
   -1.5120    4.6073    1.5018 C   0  0  0  0  0  0
   -1.7669    1.0911    0.5125 C   0  0  0  0  0  0
   -0.3622    0.6426    0.5726 C   0  0  0  0  0  0
   -2.7935    0.0296    0.5458 C   0  0  0  0  0  0
    0.5363    0.9335   -0.4780 C   0  0  0  0  0  0
    0.0787   -0.1575    1.6483 C   0  0  0  0  0  0
   -2.9695   -0.8664   -0.5381 C   0  0  0  0  0  0
   -3.5884   -0.1265    1.7033 C   0  0  0  0  0  0
    2.2882   -0.3673    0.6231 C   0  0  0  0  0  0
    1.8492    0.4271   -0.4578 C   0  0  0  0  0  0
    1.3921   -0.6641    1.6711 C   0  0  0  0  0  0
   -3.9567   -1.8719   -0.4688 C   0  0  0  0  0  0
   -4.5648   -1.1381    1.7723 C   0  0  0  0  0  0
    3.6611   -0.9741    0.6240 C   0  0  0  0  0  0
   -4.7521   -2.0092    0.6838 C   0  0  0  0  0  0
    6.1025   -0.6993    0.5897 C   0  0  0  0  0  0
    4.6859    1.3007    0.9146 C   0  0  0  0  0  0
   -1.1147   -1.5734   -1.8582 C   0  0  0  0  0  0
    6.5544   -0.8437   -0.8702 C   0  0  0  0  0  0
    4.4919    1.6230    2.4036 C   0  0  0  0  0  0
   -0.3907   -1.4306   -3.0598 C   0  0  0  0  0  0
   -0.6647   -2.5114   -0.8946 C   0  0  0  0  0  0
    0.7667   -2.1970   -3.2972 C   0  0  0  0  0  0
    0.4944   -3.2760   -1.1308 C   0  0  0  0  0  0
    1.2120   -3.1177   -2.3307 C   0  0  0  0  0  0
   -4.2821    2.1016    0.2915 H   0  0  0  0  0  0
   -3.6403    3.3525   -0.7262 H   0  0  0  0  0  0
   -1.0958    4.0230   -0.5443 H   0  0  0  0  0  0
   -0.0992    3.2344    0.6529 H   0  0  0  0  0  0
   -4.8842    4.3559    1.1656 H   0  0  0  0  0  0
   -3.8906    3.4923    2.3234 H   0  0  0  0  0  0
   -1.4053    4.1855    2.5023 H   0  0  0  0  0  0
   -0.8467    5.4695    1.4489 H   0  0  0  0  0  0
    0.2077    1.5202   -1.3234 H   0  0  0  0  0  0
   -0.5989   -0.4061    2.4521 H   0  0  0  0  0  0
   -3.4512    0.5369    2.5449 H   0  0  0  0  0  0
    2.5114    0.6350   -1.2860 H   0  0  0  0  0  0
    1.7060   -1.2918    2.4928 H   0  0  0  0  0  0
   -4.0984   -2.5447   -1.3019 H   0  0  0  0  0  0
   -5.1703   -1.2452    2.6603 H   0  0  0  0  0  0
   -5.5026   -2.7844    0.7338 H   0  0  0  0  0  0
    6.8039   -0.0582    1.1255 H   0  0  0  0  0  0
    6.1669   -1.6652    1.0938 H   0  0  0  0  0  0
    5.6096    1.7670    0.5691 H   0  0  0  0  0  0
    3.9083    1.7817    0.3253 H   0  0  0  0  0  0
    7.5703   -1.2354   -0.9238 H   0  0  0  0  0  0
    5.9070   -1.5273   -1.4203 H   0  0  0  0  0  0
    6.5416    0.1177   -1.3844 H   0  0  0  0  0  0
    4.4932    2.7006    2.5684 H   0  0  0  0  0  0
    3.5450    1.2342    2.7783 H   0  0  0  0  0  0
    5.2925    1.1946    3.0073 H   0  0  0  0  0  0
   -0.7191   -0.7168   -3.8008 H   0  0  0  0  0  0
   -1.1846   -2.6435    0.0424 H   0  0  0  0  0  0
    1.3167   -2.0741   -4.2185 H   0  0  0  0  0  0
    0.8384   -3.9787   -0.3863 H   0  0  0  0  0  0
   -2.9071    5.0607    1.3172 N   0  3  0  0  0  0
   -3.1398    5.7166    2.0495 H   0  0  0  0  0  0
   -2.9745    5.5321    0.4263 H   0  0  0  0  0  0
  1 33  1  0  0  0
  2 15  1  0  0  0
  2 26  1  0  0  0
  3 22  2  0  0  0
  4 22  1  0  0  0
  4 24  1  0  0  0
  4 25  1  0  0  0
  5  6  1  0  0  0
  5  7  1  0  0  0
  5 10  2  0  0  0
  6  8  1  0  0  0
  6 34  1  0  0  0
  6 35  1  0  0  0
  7  9  1  0  0  0
  7 36  1  0  0  0
  7 37  1  0  0  0
  8 38  1  0  0  0
  8 39  1  0  0  0
  8 64  1  0  0  0
  9 40  1  0  0  0
  9 41  1  0  0  0
  9 64  1  0  0  0
 10 11  1  0  0  0
 10 12  1  0  0  0
 11 13  2  0  0  0
 11 14  1  0  0  0
 12 15  1  0  0  0
 12 16  2  0  0  0
 13 18  1  0  0  0
 13 42  1  0  0  0
 14 19  2  0  0  0
 14 43  1  0  0  0
 15 20  2  0  0  0
 16 21  1  0  0  0
 16 44  1  0  0  0
 17 18  2  0  0  0
 17 19  1  0  0  0
 17 22  1  0  0  0
 18 45  1  0  0  0
 19 46  1  0  0  0
 20 23  1  0  0  0
 20 47  1  0  0  0
 21 23  2  0  0  0
 21 48  1  0  0  0
 23 49  1  0  0  0
 24 27  1  0  0  0
 24 50  1  0  0  0
 24 51  1  0  0  0
 25 28  1  0  0  0
 25 52  1  0  0  0
 25 53  1  0  0  0
 26 29  2  0  0  0
 26 30  1  0  0  0
 27 54  1  0  0  0
 27 55  1  0  0  0
 27 56  1  0  0  0
 28 57  1  0  0  0
 28 58  1  0  0  0
 28 59  1  0  0  0
 29 31  1  0  0  0
 29 60  1  0  0  0
 30 32  2  0  0  0
 30 61  1  0  0  0
 31 33  2  0  0  0
 31 62  1  0  0  0
 32 33  1  0  0  0
 32 63  1  0  0  0
 64 65  1  0  0  0
 64 66  1  0  0  0
M  CHG  1  64   1
M  END
> <LID>
L023474

> <PC_CID>
11178616

> <Names>


> <CAS_Numbers>


$$$$
44213022
                    3D
 Structure written by MMmdl.
 57 63  0  0  1  0            999 V2000
    0.3126    1.6036    1.4696 O   0  0  0  0  0  0
    0.5081   -2.8654    0.8887 O   0  0  0  0  0  0
    0.9898    4.2276   -0.0352 O   0  0  0  0  0  0
   -2.4743    0.6429    1.2505 N   0  0  0  0  0  0
    1.1764   -0.5155    0.7988 C   0  0  1  0  0  0
    0.7856   -1.7953   -0.0046 C   0  0  1  0  0  0
    0.0142    0.2027    1.5847 C   0  0  2  0  0  0
    2.0319   -2.1788   -0.8525 C   0  0  1  0  0  0
    2.4100   -0.8242    1.7004 C   0  0  0  0  0  0
    1.5452    0.5750   -0.1729 C   0  0  0  0  0  0
   -0.5072   -1.6456   -0.8601 C   0  0  0  0  0  0
    2.4327   -1.0485   -1.8494 C   0  0  0  0  0  0
   -1.3016    0.0003    0.8902 C   0  0  0  0  0  0
    3.5996   -1.4159    0.9260 C   0  0  0  0  0  0
    2.2180    0.3972   -1.3940 C   0  0  0  0  0  0
   -1.5498   -0.8114   -0.1825 C   0  0  0  0  0  0
    1.0619    1.7697    0.3373 C   0  0  0  0  0  0
   -0.0906   -0.1427    3.0842 C   0  0  0  0  0  0
   -2.9454   -0.6716   -0.4977 C   0  0  0  0  0  0
    4.2753   -3.2608   -0.5776 C   0  0  0  0  0  0
    2.5032    1.5742   -2.1121 C   0  0  0  0  0  0
    1.3681    2.9505   -0.3938 C   0  0  0  0  0  0
   -3.5125    0.2565    0.4257 C   0  0  0  0  0  0
    2.1008    2.8316   -1.6021 C   0  0  0  0  0  0
   -3.8087   -1.2260   -1.4722 C   0  0  0  0  0  0
   -4.8723    0.6141    0.3832 C   0  0  0  0  0  0
   -5.1731   -0.8741   -1.5222 C   0  0  0  0  0  0
   -5.7057    0.0441   -0.5966 C   0  0  0  0  0  0
    0.2418    4.4125    1.1562 C   0  0  0  0  0  0
    1.8003   -3.0761   -1.4288 H   0  0  0  0  0  0
    2.1332   -1.5353    2.4794 H   0  0  0  0  0  0
    2.7380    0.0773    2.2196 H   0  0  0  0  0  0
   -0.9099   -2.6223   -1.1321 H   0  0  0  0  0  0
   -0.2738   -1.1635   -1.8082 H   0  0  0  0  0  0
    1.8345   -1.1660   -2.7532 H   0  0  0  0  0  0
    3.4622   -1.1555   -2.1875 H   0  0  0  0  0  0
    4.0949   -0.6517    0.3264 H   0  0  0  0  0  0
    4.3464   -1.7750    1.6352 H   0  0  0  0  0  0
   -0.2929   -1.2041    3.2294 H   0  0  0  0  0  0
    0.8177    0.1081    3.6311 H   0  0  0  0  0  0
   -0.8993    0.4131    3.5591 H   0  0  0  0  0  0
    0.1167   -3.5758    0.4024 H   0  0  0  0  0  0
   -2.5301    1.3023    2.0132 H   0  0  0  0  0  0
    4.9484   -3.6631    0.1802 H   0  0  0  0  0  0
    3.9098   -4.1003   -1.1697 H   0  0  0  0  0  0
    4.8602   -2.6098   -1.2270 H   0  0  0  0  0  0
    3.0097    1.5173   -3.0644 H   0  0  0  0  0  0
    2.3275    3.7227   -2.1689 H   0  0  0  0  0  0
   -3.4153   -1.9307   -2.1896 H   0  0  0  0  0  0
   -5.2735    1.3199    1.0953 H   0  0  0  0  0  0
   -5.8137   -1.3105   -2.2747 H   0  0  0  0  0  0
   -6.7516    0.3107   -0.6395 H   0  0  0  0  0  0
    0.0459    5.4757    1.2940 H   0  0  0  0  0  0
   -0.7231    3.9066    1.1034 H   0  0  0  0  0  0
    0.7913    4.0648    2.0318 H   0  0  0  0  0  0
    3.1542   -2.5389    0.0673 N   0  3  2  0  0  0
    2.7416   -3.2072    0.7040 H   0  0  0  0  0  0
  1  7  1  0  0  0
  1 17  1  0  0  0
  2  6  1  0  0  0
  2 42  1  0  0  0
  3 22  1  0  0  0
  3 29  1  0  0  0
  4 13  1  0  0  0
  4 23  1  0  0  0
  4 43  1  0  0  0
  5  6  1  0  0  0
  5  7  1  0  0  0
  5  9  1  0  0  0
  5 10  1  0  0  0
  6  8  1  0  0  0
  6 11  1  0  0  0
  7 13  1  0  0  0
  7 18  1  0  0  0
  8 12  1  0  0  0
  8 30  1  0  0  0
  8 56  1  0  0  0
  9 14  1  0  0  0
  9 31  1  0  0  0
  9 32  1  0  0  0
 10 15  2  0  0  0
 10 17  1  0  0  0
 11 16  1  0  0  0
 11 33  1  0  0  0
 11 34  1  0  0  0
 12 15  1  0  0  0
 12 35  1  0  0  0
 12 36  1  0  0  0
 13 16  2  0  0  0
 14 37  1  0  0  0
 14 38  1  0  0  0
 14 56  1  0  0  0
 15 21  1  0  0  0
 16 19  1  0  0  0
 17 22  2  0  0  0
 18 39  1  0  0  0
 18 40  1  0  0  0
 18 41  1  0  0  0
 19 23  1  0  0  0
 19 25  2  0  0  0
 20 44  1  0  0  0
 20 45  1  0  0  0
 20 46  1  0  0  0
 20 56  1  0  0  0
 21 24  2  0  0  0
 21 47  1  0  0  0
 22 24  1  0  0  0
 23 26  2  0  0  0
 24 48  1  0  0  0
 25 27  1  0  0  0
 25 49  1  0  0  0
 26 28  1  0  0  0
 26 50  1  0  0  0
 27 28  2  0  0  0
 27 51  1  0  0  0
 28 52  1  0  0  0
 29 53  1  0  0  0
 29 54  1  0  0  0
 29 55  1  0  0  0
 56 57  1  0  0  0
M  CHG  1  56   1
M  END
> <LID>
L014024

> <PC_CID>
44213022

> <Names>


> <CAS_Numbers>


$$$$
13493
                    3D
 Structure written by MMmdl.
 58 60  0  0  1  0            999 V2000
    6.2831   -0.2871   -0.0119 O   0  0  0  0  0  0
   -1.5114    6.0122   -0.3661 O   0  5  0  0  0  0
   -3.6428    5.7316   -0.1428 O   0  0  0  0  0  0
   -1.4920   -0.2421   -0.8234 N   0  0  0  0  0  0
    0.3031    1.1540   -0.9218 N   0  0  0  0  0  0
   -2.5068    5.2976   -0.3044 N   0  3  0  0  0  0
   -2.2773   -1.4659   -0.8284 C   0  0  0  0  0  0
   -2.4937   -1.9997    0.5999 C   0  0  0  0  0  0
   -0.1482   -0.1023   -0.9558 C   0  0  0  0  0  0
   -1.9908    1.0478   -0.6725 C   0  0  0  0  0  0
   -0.8492    1.8920   -0.7394 C   0  0  0  0  0  0
    0.7514   -1.2945   -1.1409 C   0  0  0  0  0  0
   -3.1013   -4.0053    1.9040 C   0  0  0  0  0  0
   -4.6790   -3.1115    0.2071 C   0  0  0  0  0  0
   -3.2812    1.5746   -0.4879 C   0  0  0  0  0  0
    2.2137   -1.0318   -0.8196 C   0  0  0  0  0  0
   -1.0354    3.2865   -0.6171 C   0  0  0  0  0  0
   -2.3275    3.8371   -0.4309 C   0  0  0  0  0  0
   -3.4447    2.9681   -0.3676 C   0  0  0  0  0  0
   -3.4920   -5.4863    1.7862 C   0  0  0  0  0  0
   -4.9615   -3.8547   -1.1036 C   0  0  0  0  0  0
    3.1261   -0.7304   -1.8505 C   0  0  0  0  0  0
    2.6669   -1.0874    0.5138 C   0  0  0  0  0  0
    4.4793   -0.4866   -1.5474 C   0  0  0  0  0  0
    4.0208   -0.8431    0.8157 C   0  0  0  0  0  0
    4.9434   -0.5393   -0.2171 C   0  0  0  0  0  0
    6.7798   -0.3278    1.3188 C   0  0  0  0  0  0
    8.2778   -0.0158    1.2921 C   0  0  0  0  0  0
   -3.2287   -1.2515   -1.3155 H   0  0  0  0  0  0
   -1.7815   -2.2119   -1.4501 H   0  0  0  0  0  0
   -1.5136   -2.1578    1.0519 H   0  0  0  0  0  0
   -2.9996   -1.2572    1.2195 H   0  0  0  0  0  0
    0.6599   -1.6420   -2.1705 H   0  0  0  0  0  0
    0.4094   -2.1107   -0.5044 H   0  0  0  0  0  0
   -2.0589   -3.9661    2.2229 H   0  0  0  0  0  0
   -3.6812   -3.5137    2.6868 H   0  0  0  0  0  0
   -5.3549   -3.4781    0.9807 H   0  0  0  0  0  0
   -4.9333   -2.0574    0.0876 H   0  0  0  0  0  0
   -4.1393    0.9209   -0.4392 H   0  0  0  0  0  0
   -0.1689    3.9292   -0.6681 H   0  0  0  0  0  0
   -4.4395    3.3655   -0.2264 H   0  0  0  0  0  0
   -4.5469   -5.6149    1.5442 H   0  0  0  0  0  0
   -3.3101   -6.0066    2.7269 H   0  0  0  0  0  0
   -2.9073   -5.9881    1.0147 H   0  0  0  0  0  0
   -4.7705   -4.9235   -1.0025 H   0  0  0  0  0  0
   -4.3401   -3.4786   -1.9168 H   0  0  0  0  0  0
   -6.0034   -3.7323   -1.4005 H   0  0  0  0  0  0
    2.7915   -0.6810   -2.8764 H   0  0  0  0  0  0
    1.9753   -1.3145    1.3119 H   0  0  0  0  0  0
    5.1698   -0.2550   -2.3450 H   0  0  0  0  0  0
    4.3266   -0.8941    1.8495 H   0  0  0  0  0  0
    6.2652    0.4072    1.9396 H   0  0  0  0  0  0
    6.6207   -1.3155    1.7543 H   0  0  0  0  0  0
    8.6983   -0.0371    2.2977 H   0  0  0  0  0  0
    8.8185   -0.7445    0.6877 H   0  0  0  0  0  0
    8.4641    0.9730    0.8722 H   0  0  0  0  0  0
   -3.2574   -3.2747    0.6188 N   0  3  0  0  0  0
   -2.8225   -3.8626   -0.0782 H   0  0  0  0  0  0
  1 26  1  0  0  0
  1 27  1  0  0  0
  2  6  1  0  0  0
  3  6  2  0  0  0
  4  7  1  0  0  0
  4  9  1  0  0  0
  4 10  1  0  0  0
  5  9  2  0  0  0
  5 11  1  0  0  0
  6 18  1  0  0  0
  7  8  1  0  0  0
  7 29  1  0  0  0
  7 30  1  0  0  0
  8 31  1  0  0  0
  8 32  1  0  0  0
  8 57  1  0  0  0
  9 12  1  0  0  0
 10 11  2  0  0  0
 10 15  1  0  0  0
 11 17  1  0  0  0
 12 16  1  0  0  0
 12 33  1  0  0  0
 12 34  1  0  0  0
 13 20  1  0  0  0
 13 35  1  0  0  0
 13 36  1  0  0  0
 13 57  1  0  0  0
 14 21  1  0  0  0
 14 37  1  0  0  0
 14 38  1  0  0  0
 14 57  1  0  0  0
 15 19  2  0  0  0
 15 39  1  0  0  0
 16 22  2  0  0  0
 16 23  1  0  0  0
 17 18  2  0  0  0
 17 40  1  0  0  0
 18 19  1  0  0  0
 19 41  1  0  0  0
 20 42  1  0  0  0
 20 43  1  0  0  0
 20 44  1  0  0  0
 21 45  1  0  0  0
 21 46  1  0  0  0
 21 47  1  0  0  0
 22 24  1  0  0  0
 22 48  1  0  0  0
 23 25  2  0  0  0
 23 49  1  0  0  0
 24 26  2  0  0  0
 24 50  1  0  0  0
 25 26  1  0  0  0
 25 51  1  0  0  0
 27 28  1  0  0  0
 27 52  1  0  0  0
 27 53  1  0  0  0
 28 54  1  0  0  0
 28 55  1  0  0  0
 28 56  1  0  0  0
 57 58  1  0  0  0
M  CHG  3   2  -1   6   1  57   1
M  END
> <LID>
L000697

> <PC_CID>
13493

> <Names>
etonitazene

> <CAS_Numbers>
911-65-9

$$$$
11202089
                    3D
 Structure written by MMmdl.
 72 74  0  0  1  0            999 V2000
   -0.2763    8.9051   -0.5551 O   0  0  0  0  0  0
    2.8783   -5.3820   -0.0227 O   0  0  0  0  0  0
   -6.6071   -1.9685   -1.6174 O   0  0  0  0  0  0
    4.5895   -3.9146    0.3063 N   0  0  0  0  0  0
   -6.9400   -2.0057    0.6047 N   0  0  0  0  0  0
    1.2893    2.9743   -0.1240 C   0  0  0  0  0  0
   -1.1035    3.5552   -0.1637 C   0  0  0  0  0  0
    1.0185    1.7980    0.8300 C   0  0  0  0  0  0
   -1.4231    2.3996    0.7978 C   0  0  0  0  0  0
   -0.4037    1.2735    0.6649 C   0  0  0  0  0  0
    0.6020    5.2395   -0.8114 C   0  0  0  0  0  0
   -0.7201   -0.0248    0.4212 C   0  0  0  0  0  0
   -0.0522    6.5312   -0.2906 C   0  0  0  0  0  0
    0.3068   -1.0791    0.3625 C   0  0  0  0  0  0
   -2.1110   -0.4584    0.2067 C   0  0  0  0  0  0
    0.3659    7.7650   -1.0991 C   0  0  0  0  0  0
    0.5333   -1.7803   -0.8406 C   0  0  0  0  0  0
    1.0405   -1.4344    1.5152 C   0  0  0  0  0  0
   -2.8105   -0.0783   -0.9585 C   0  0  0  0  0  0
   -2.7417   -1.3044    1.1420 C   0  0  0  0  0  0
    1.5002   -2.8023   -0.8992 C   0  0  0  0  0  0
    2.0083   -2.4553    1.4580 C   0  0  0  0  0  0
    2.2566   -3.1322    0.2449 C   0  0  0  0  0  0
   -4.1318   -0.5156   -1.1716 C   0  0  0  0  0  0
   -4.0631   -1.7434    0.9306 C   0  0  0  0  0  0
   -4.7748   -1.3418   -0.2236 C   0  0  0  0  0  0
    3.2749   -4.2323    0.1718 C   0  0  0  0  0  0
    0.0542   10.0972   -1.2463 C   0  0  0  0  0  0
    5.6168   -4.9657    0.2564 C   0  0  0  0  0  0
    5.1266   -2.5450    0.3769 C   0  0  0  0  0  0
   -6.1773   -1.8182   -0.4756 C   0  0  0  0  0  0
    5.9649   -5.3592   -1.1878 C   0  0  0  0  0  0
    5.5362   -2.1476    1.8043 C   0  0  0  0  0  0
    1.2861    2.6222   -1.1570 H   0  0  0  0  0  0
    2.2877    3.3673    0.0725 H   0  0  0  0  0  0
   -1.8244    4.3550    0.0011 H   0  0  0  0  0  0
   -1.2312    3.2242   -1.1958 H   0  0  0  0  0  0
    1.1455    2.1225    1.8634 H   0  0  0  0  0  0
    1.7697    1.0294    0.6554 H   0  0  0  0  0  0
   -2.4470    2.0647    0.6417 H   0  0  0  0  0  0
   -1.3868    2.7630    1.8255 H   0  0  0  0  0  0
    1.6824    5.3916   -0.8166 H   0  0  0  0  0  0
    0.3143    5.0485   -1.8466 H   0  0  0  0  0  0
   -1.1383    6.4502   -0.3214 H   0  0  0  0  0  0
    0.2182    6.6820    0.7553 H   0  0  0  0  0  0
    1.4490    7.8926   -1.0599 H   0  0  0  0  0  0
    0.0844    7.6414   -2.1462 H   0  0  0  0  0  0
   -0.0357   -1.5346   -1.7255 H   0  0  0  0  0  0
    0.8583   -0.9250    2.4503 H   0  0  0  0  0  0
   -2.3325    0.5516   -1.6946 H   0  0  0  0  0  0
   -2.2103   -1.6218    2.0275 H   0  0  0  0  0  0
    1.6628   -3.3288   -1.8288 H   0  0  0  0  0  0
    2.5462   -2.7252    2.3542 H   0  0  0  0  0  0
   -4.6493   -0.2107   -2.0699 H   0  0  0  0  0  0
   -4.5174   -2.3973    1.6607 H   0  0  0  0  0  0
   -0.4637   10.9409   -0.7901 H   0  0  0  0  0  0
    1.1258   10.2959   -1.2006 H   0  0  0  0  0  0
   -0.2478   10.0434   -2.2930 H   0  0  0  0  0  0
    6.5239   -4.6309    0.7601 H   0  0  0  0  0  0
    5.2880   -5.8451    0.8129 H   0  0  0  0  0  0
    6.0015   -2.4782   -0.2712 H   0  0  0  0  0  0
    4.4311   -1.8087   -0.0261 H   0  0  0  0  0  0
    6.7418   -6.1238   -1.2022 H   0  0  0  0  0  0
    5.0985   -5.7613   -1.7135 H   0  0  0  0  0  0
    6.3329   -4.5034   -1.7542 H   0  0  0  0  0  0
    5.9336   -1.1327    1.8190 H   0  0  0  0  0  0
    4.6956   -2.1782    2.4947 H   0  0  0  0  0  0
    6.3104   -2.8054    2.1990 H   0  0  0  0  0  0
   -7.8975   -2.3044    0.4910 H   0  0  0  0  0  0
   -6.5608   -1.8414    1.5253 H   0  0  0  0  0  0
    0.2832    4.0572    0.0299 N   0  3  2  0  0  0
    0.3514    4.3642    0.9898 H   0  0  0  0  0  0
  1 16  1  0  0  0
  1 28  1  0  0  0
  2 27  2  0  0  0
  3 31  2  0  0  0
  4 27  1  0  0  0
  4 29  1  0  0  0
  4 30  1  0  0  0
  5 31  1  0  0  0
  5 69  1  0  0  0
  5 70  1  0  0  0
  6  8  1  0  0  0
  6 34  1  0  0  0
  6 35  1  0  0  0
  6 71  1  0  0  0
  7  9  1  0  0  0
  7 36  1  0  0  0
  7 37  1  0  0  0
  7 71  1  0  0  0
  8 10  1  0  0  0
  8 38  1  0  0  0
  8 39  1  0  0  0
  9 10  1  0  0  0
  9 40  1  0  0  0
  9 41  1  0  0  0
 10 12  2  0  0  0
 11 13  1  0  0  0
 11 42  1  0  0  0
 11 43  1  0  0  0
 11 71  1  0  0  0
 12 14  1  0  0  0
 12 15  1  0  0  0
 13 16  1  0  0  0
 13 44  1  0  0  0
 13 45  1  0  0  0
 14 17  2  0  0  0
 14 18  1  0  0  0
 15 19  2  0  0  0
 15 20  1  0  0  0
 16 46  1  0  0  0
 16 47  1  0  0  0
 17 21  1  0  0  0
 17 48  1  0  0  0
 18 22  2  0  0  0
 18 49  1  0  0  0
 19 24  1  0  0  0
 19 50  1  0  0  0
 20 25  2  0  0  0
 20 51  1  0  0  0
 21 23  2  0  0  0
 21 52  1  0  0  0
 22 23  1  0  0  0
 22 53  1  0  0  0
 23 27  1  0  0  0
 24 26  2  0  0  0
 24 54  1  0  0  0
 25 26  1  0  0  0
 25 55  1  0  0  0
 26 31  1  0  0  0
 28 56  1  0  0  0
 28 57  1  0  0  0
 28 58  1  0  0  0
 29 32  1  0  0  0
 29 59  1  0  0  0
 29 60  1  0  0  0
 30 33  1  0  0  0
 30 61  1  0  0  0
 30 62  1  0  0  0
 32 63  1  0  0  0
 32 64  1  0  0  0
 32 65  1  0  0  0
 33 66  1  0  0  0
 33 67  1  0  0  0
 33 68  1  0  0  0
 71 72  1  0  0  0
M  CHG  1  71   1
M  END
> <LID>
L023462

> <PC_CID>
11202089

> <Names>


> <CAS_Numbers>


$$$$
9929807
                    3D
 Structure written by MMmdl.
 51 54  0  0  1  0            999 V2000
   -2.8344   -3.3284   -0.7266 O   0  0  0  0  0  0
    1.6289   -0.2640    0.8934 N   0  0  0  0  0  0
   -0.3361    3.1238   -0.7531 C   0  0  0  0  0  0
   -1.0900    1.9085   -0.2242 C   0  0  0  0  0  0
    1.0769    2.8096   -1.2700 C   0  0  0  0  0  0
   -0.4518    0.8066    0.2401 C   0  0  0  0  0  0
    1.7737    1.7110   -0.4931 C   0  0  0  0  0  0
    1.0279    0.7377    0.2095 C   0  0  0  0  0  0
   -2.6084    2.0722   -0.1870 C   0  0  0  0  0  0
   -1.2303   -0.3498    0.7196 C   0  0  0  0  0  0
    3.1794    1.6297   -0.4839 C   0  0  0  0  0  0
    3.7958    0.5836    0.2291 C   0  0  0  0  0  0
    2.9772   -0.3546    0.9124 C   0  0  0  0  0  0
   -1.6775   -1.3214   -0.1988 C   0  0  0  0  0  0
   -1.4984   -0.4994    2.0943 C   0  0  0  0  0  0
   -4.7400    1.2909   -1.1265 C   0  0  0  0  0  0
   -2.9549    1.9957   -2.6519 C   0  0  0  0  0  0
    5.2014    0.4740    0.2589 C   0  0  0  0  0  0
    3.6070   -1.3985    1.6225 C   0  0  0  0  0  0
   -2.4221   -2.4355    0.2388 C   0  0  0  0  0  0
   -2.2372   -1.6097    2.5424 C   0  0  0  0  0  0
    5.8085   -0.5750    0.9733 C   0  0  0  0  0  0
    5.0105   -1.5116    1.6554 C   0  0  0  0  0  0
   -2.7009   -2.5710    1.6227 C   0  0  0  0  0  0
   -3.5752   -4.4666   -0.3113 C   0  0  0  0  0  0
   -0.9031    3.6341   -1.5316 H   0  0  0  0  0  0
   -0.2644    3.8258    0.0785 H   0  0  0  0  0  0
    1.6851    3.7151   -1.2719 H   0  0  0  0  0  0
    1.0126    2.4767   -2.3065 H   0  0  0  0  0  0
   -2.9851    1.6524    0.7466 H   0  0  0  0  0  0
   -2.8724    3.1306   -0.1594 H   0  0  0  0  0  0
    3.7734    2.3570   -1.0184 H   0  0  0  0  0  0
   -1.4518   -1.2127   -1.2497 H   0  0  0  0  0  0
   -1.1424    0.2343    2.8030 H   0  0  0  0  0  0
   -5.2032    0.7292   -1.9384 H   0  0  0  0  0  0
   -4.9592    0.7639   -0.1971 H   0  0  0  0  0  0
   -5.2071    2.2757   -1.0810 H   0  0  0  0  0  0
   -3.4870    1.4745   -3.4486 H   0  0  0  0  0  0
   -3.2345    3.0494   -2.6897 H   0  0  0  0  0  0
   -1.8908    1.9108   -2.8715 H   0  0  0  0  0  0
    5.8177    1.1913   -0.2637 H   0  0  0  0  0  0
    3.0042   -2.1234    2.1496 H   0  0  0  0  0  0
   -2.4488   -1.7257    3.5952 H   0  0  0  0  0  0
    6.8851   -0.6614    0.9981 H   0  0  0  0  0  0
    5.4746   -2.3178    2.2044 H   0  0  0  0  0  0
   -3.2656   -3.4074    2.0057 H   0  0  0  0  0  0
   -3.8202   -5.0738   -1.1826 H   0  0  0  0  0  0
   -2.9982   -5.0902    0.3730 H   0  0  0  0  0  0
   -4.5138   -4.1797    0.1646 H   0  0  0  0  0  0
   -3.2796    1.4053   -1.3330 N   0  3  0  0  0  0
   -2.9300    0.4574   -1.3500 H   0  0  0  0  0  0
  1 20  1  0  0  0
  1 25  1  0  0  0
  2  8  2  0  0  0
  2 13  1  0  0  0
  3  4  1  0  0  0
  3  5  1  0  0  0
  3 26  1  0  0  0
  3 27  1  0  0  0
  4  6  2  0  0  0
  4  9  1  0  0  0
  5  7  1  0  0  0
  5 28  1  0  0  0
  5 29  1  0  0  0
  6  8  1  0  0  0
  6 10  1  0  0  0
  7  8  1  0  0  0
  7 11  2  0  0  0
  9 30  1  0  0  0
  9 31  1  0  0  0
  9 50  1  0  0  0
 10 14  2  0  0  0
 10 15  1  0  0  0
 11 12  1  0  0  0
 11 32  1  0  0  0
 12 13  1  0  0  0
 12 18  2  0  0  0
 13 19  2  0  0  0
 14 20  1  0  0  0
 14 33  1  0  0  0
 15 21  2  0  0  0
 15 34  1  0  0  0
 16 35  1  0  0  0
 16 36  1  0  0  0
 16 37  1  0  0  0
 16 50  1  0  0  0
 17 38  1  0  0  0
 17 39  1  0  0  0
 17 40  1  0  0  0
 17 50  1  0  0  0
 18 22  1  0  0  0
 18 41  1  0  0  0
 19 23  1  0  0  0
 19 42  1  0  0  0
 20 24  2  0  0  0
 21 24  1  0  0  0
 21 43  1  0  0  0
 22 23  2  0  0  0
 22 44  1  0  0  0
 23 45  1  0  0  0
 24 46  1  0  0  0
 25 47  1  0  0  0
 25 48  1  0  0  0
 25 49  1  0  0  0
 50 51  1  0  0  0
M  CHG  1  50   1
M  END
> <LID>
L019398

> <PC_CID>
9929807

> <Names>


> <CAS_Numbers>


$$$$
44213728
                    3D
 Structure written by MMmdl.
 59 60  0  0  1  0            999 V2000
   -3.2140   -3.8591   -1.8387 O   0  0  0  0  0  0
    4.6333    0.9500   -0.9944 O   0  0  0  0  0  0
   -1.6644    0.4480   -0.4079 N   0  0  0  0  0  0
    4.5978   -1.1639   -0.1453 N   0  0  0  0  0  0
   -2.2721    1.7901   -0.4170 C   0  0  1  0  0  0
   -1.8426    2.6271    0.8126 C   0  0  0  0  0  0
   -2.0121    2.5301   -1.7432 C   0  0  0  0  0  0
   -0.3163    0.3378   -0.4490 C   0  0  0  0  0  0
   -2.4832   -0.6162   -0.2301 C   0  0  0  0  0  0
    0.3709    0.3457   -1.6821 C   0  0  0  0  0  0
    0.4174    0.2038    0.7494 C   0  0  0  0  0  0
   -3.9867    3.7090    1.4242 C   0  0  0  0  0  0
   -1.8721    4.8943    1.7657 C   0  0  0  0  0  0
    2.5045    0.0779   -0.5190 C   0  0  0  0  0  0
   -2.4309   -1.7033   -1.1316 C   0  0  0  0  0  0
   -3.3952   -0.6639    0.8501 C   0  0  0  0  0  0
    1.7734    0.2271   -1.7162 C   0  0  0  0  0  0
    1.8198    0.0847    0.7160 C   0  0  0  0  0  0
    4.0021   -0.0182   -0.5689 C   0  0  0  0  0  0
   -3.2754   -2.8176   -0.9593 C   0  0  0  0  0  0
   -4.2395   -1.7777    1.0227 C   0  0  0  0  0  0
    6.0633   -1.2741   -0.1060 C   0  0  0  0  0  0
    3.8874   -2.4033    0.2109 C   0  0  0  0  0  0
   -4.1809   -2.8548    0.1185 C   0  0  0  0  0  0
    6.6266   -0.7562    1.2248 C   0  0  0  0  0  0
    3.4782   -3.2013   -1.0359 C   0  0  0  0  0  0
   -3.3516    1.6496   -0.3699 H   0  0  0  0  0  0
   -1.9535    2.0504    1.7322 H   0  0  0  0  0  0
   -0.7791    2.8544    0.7229 H   0  0  0  0  0  0
   -0.9629    2.8032   -1.8581 H   0  0  0  0  0  0
   -2.2945    1.9130   -2.5968 H   0  0  0  0  0  0
   -2.5955    3.4486   -1.8051 H   0  0  0  0  0  0
   -0.1760    0.4427   -2.6086 H   0  0  0  0  0  0
   -0.0943    0.1951    1.7009 H   0  0  0  0  0  0
   -4.5067    4.6659    1.4813 H   0  0  0  0  0  0
   -4.5608    3.0718    0.7526 H   0  0  0  0  0  0
   -4.0001    3.2575    2.4172 H   0  0  0  0  0  0
   -2.4175    5.8381    1.8018 H   0  0  0  0  0  0
   -1.7398    4.5367    2.7879 H   0  0  0  0  0  0
   -0.8873    5.1013    1.3452 H   0  0  0  0  0  0
   -1.7423   -1.6856   -1.9640 H   0  0  0  0  0  0
   -3.4501    0.1493    1.5584 H   0  0  0  0  0  0
    2.2856    0.2419   -2.6675 H   0  0  0  0  0  0
    2.3679   -0.0041    1.6430 H   0  0  0  0  0  0
   -4.9319   -1.8065    1.8511 H   0  0  0  0  0  0
    6.3687   -2.3114   -0.2504 H   0  0  0  0  0  0
    6.5184   -0.7314   -0.9363 H   0  0  0  0  0  0
    4.5267   -3.0280    0.8363 H   0  0  0  0  0  0
    3.0153   -2.2092    0.8316 H   0  0  0  0  0  0
   -4.8310   -3.7065    0.2566 H   0  0  0  0  0  0
    7.7116   -0.8575    1.2511 H   0  0  0  0  0  0
    6.3891    0.2977    1.3728 H   0  0  0  0  0  0
    6.2204   -1.3138    2.0692 H   0  0  0  0  0  0
    2.9898   -4.1341   -0.7537 H   0  0  0  0  0  0
    2.7815   -2.6417   -1.6602 H   0  0  0  0  0  0
    4.3463   -3.4533   -1.6455 H   0  0  0  0  0  0
   -3.8188   -4.5560   -1.6353 H   0  0  0  0  0  0
   -2.5977    3.8991    0.9451 N   0  3  0  0  0  0
   -2.6574    4.2940    0.0170 H   0  0  0  0  0  0
  1 20  1  0  0  0
  1 57  1  0  0  0
  2 19  2  0  0  0
  3  5  1  0  0  0
  3  8  1  0  0  0
  3  9  1  0  0  0
  4 19  1  0  0  0
  4 22  1  0  0  0
  4 23  1  0  0  0
  5  6  1  0  0  0
  5  7  1  0  0  0
  5 27  1  0  0  0
  6 28  1  0  0  0
  6 29  1  0  0  0
  6 58  1  0  0  0
  7 30  1  0  0  0
  7 31  1  0  0  0
  7 32  1  0  0  0
  8 10  2  0  0  0
  8 11  1  0  0  0
  9 15  2  0  0  0
  9 16  1  0  0  0
 10 17  1  0  0  0
 10 33  1  0  0  0
 11 18  2  0  0  0
 11 34  1  0  0  0
 12 35  1  0  0  0
 12 36  1  0  0  0
 12 37  1  0  0  0
 12 58  1  0  0  0
 13 38  1  0  0  0
 13 39  1  0  0  0
 13 40  1  0  0  0
 13 58  1  0  0  0
 14 17  2  0  0  0
 14 18  1  0  0  0
 14 19  1  0  0  0
 15 20  1  0  0  0
 15 41  1  0  0  0
 16 21  2  0  0  0
 16 42  1  0  0  0
 17 43  1  0  0  0
 18 44  1  0  0  0
 20 24  2  0  0  0
 21 24  1  0  0  0
 21 45  1  0  0  0
 22 25  1  0  0  0
 22 46  1  0  0  0
 22 47  1  0  0  0
 23 26  1  0  0  0
 23 48  1  0  0  0
 23 49  1  0  0  0
 24 50  1  0  0  0
 25 51  1  0  0  0
 25 52  1  0  0  0
 25 53  1  0  0  0
 26 54  1  0  0  0
 26 55  1  0  0  0
 26 56  1  0  0  0
 58 59  1  0  0  0
M  CHG  1  58   1
M  END
> <LID>
L015794

> <PC_CID>
44213728

> <Names>


> <CAS_Numbers>


$$$$
23383824
                    3D
 Structure written by MMmdl.
 64 66  0  0  1  0            999 V2000
    8.1422   -0.2876   -0.2571 P   0  0  0  0  0  0
    5.0262   -1.2834    0.0684 O   0  0  0  0  0  0
    4.1190   -2.5700    1.7096 O   0  0  0  0  0  0
    7.1861   -1.4758   -0.8565 O   0  0  0  0  0  0
   -6.8097   -0.5749   -0.3923 O   0  0  0  0  0  0
    7.2126    0.7883    0.2705 O   0  0  0  0  0  0
    2.9702   -0.7262    0.8225 N   0  0  0  0  0  0
   -5.9355   -2.4886    0.4813 N   0  0  0  0  0  0
    0.4771    0.7941    0.2480 C   0  0  0  0  0  0
    1.8596    1.4387    0.1780 C   0  0  0  0  0  0
    0.4901   -0.6229    0.8151 C   0  0  0  0  0  0
    2.9859    0.4257   -0.0982 C   0  0  0  0  0  0
    1.7584   -0.9341    1.6262 C   0  0  0  0  0  0
   -0.6624    1.4193   -0.1461 C   0  0  0  0  0  0
   -1.9678    0.7342   -0.1048 C   0  0  0  0  0  0
   -0.6660    2.8161   -0.6213 C   0  0  0  0  0  0
    4.0506   -1.6117    0.9367 C   0  0  0  0  0  0
   -3.0026    1.2365    0.7123 C   0  0  0  0  0  0
   -2.2148   -0.4020   -0.9056 C   0  0  0  0  0  0
   -1.1437    3.1195   -1.9149 C   0  0  0  0  0  0
   -0.2290    3.8683    0.2145 C   0  0  0  0  0  0
   -4.4893   -0.5600   -0.0218 C   0  0  0  0  0  0
   -4.2564    0.5968    0.7510 C   0  0  0  0  0  0
   -3.4677   -1.0431   -0.8682 C   0  0  0  0  0  0
   -1.1682    4.4511   -2.3732 C   0  0  0  0  0  0
   -0.2525    5.2002   -0.2427 C   0  0  0  0  0  0
   -5.8390   -1.2175    0.0100 C   0  0  0  0  0  0
   -0.7208    5.4921   -1.5377 C   0  0  0  0  0  0
   -7.2235   -3.1974    0.4611 C   0  0  0  0  0  0
   -4.8438   -3.2351    1.1286 C   0  0  0  0  0  0
    6.2455   -2.0078    0.0583 C   0  0  0  0  0  0
   -7.4427   -3.9184   -0.8763 C   0  0  0  0  0  0
   -4.6580   -2.8131    2.5936 C   0  0  0  0  0  0
    2.0493    1.9283    1.1339 H   0  0  0  0  0  0
    1.8944    2.2179   -0.5831 H   0  0  0  0  0  0
    0.4235   -1.3245   -0.0171 H   0  0  0  0  0  0
   -0.3882   -0.7881    1.4398 H   0  0  0  0  0  0
    2.8998    0.0533   -1.1201 H   0  0  0  0  0  0
    3.9394    0.9532   -0.0325 H   0  0  0  0  0  0
    1.8093   -0.2946    2.5084 H   0  0  0  0  0  0
    1.6898   -1.9594    1.9932 H   0  0  0  0  0  0
   -2.8354    2.1167    1.3160 H   0  0  0  0  0  0
   -1.4416   -0.7833   -1.5565 H   0  0  0  0  0  0
   -1.4909    2.3276   -2.5626 H   0  0  0  0  0  0
    0.1257    3.6549    1.2123 H   0  0  0  0  0  0
   -5.0374    0.9948    1.3829 H   0  0  0  0  0  0
   -3.6407   -1.9077   -1.4928 H   0  0  0  0  0  0
   -1.5313    4.6735   -3.3658 H   0  0  0  0  0  0
    0.0870    5.9979    0.4015 H   0  0  0  0  0  0
   -0.7395    6.5134   -1.8887 H   0  0  0  0  0  0
   -7.2698   -3.9214    1.2759 H   0  0  0  0  0  0
   -8.0504   -2.5110    0.6510 H   0  0  0  0  0  0
   -5.0564   -4.3045    1.0932 H   0  0  0  0  0  0
   -3.9044   -3.1327    0.5896 H   0  0  0  0  0  0
    6.6696   -2.0354    1.0634 H   0  0  0  0  0  0
    6.0430   -3.0404   -0.2276 H   0  0  0  0  0  0
   -8.3919   -4.4544   -0.8758 H   0  0  0  0  0  0
   -7.4611   -3.2139   -1.7084 H   0  0  0  0  0  0
   -6.6516   -4.6439   -1.0681 H   0  0  0  0  0  0
   -3.8739   -3.4031    3.0683 H   0  0  0  0  0  0
   -4.3747   -1.7637    2.6763 H   0  0  0  0  0  0
   -5.5747   -2.9589    3.1655 H   0  0  0  0  0  0
    8.9744   -0.9349    0.8326 O   0  5  0  0  0  0
    8.9783    0.1845   -1.4296 O   0  5  0  0  0  0
  1  4  1  0  0  0
  1  6  2  0  0  0
  1 63  1  0  0  0
  1 64  1  0  0  0
  2 17  1  0  0  0
  2 31  1  0  0  0
  3 17  2  0  0  0
  4 31  1  0  0  0
  5 27  2  0  0  0
  7 12  1  0  0  0
  7 13  1  0  0  0
  7 17  1  0  0  0
  8 27  1  0  0  0
  8 29  1  0  0  0
  8 30  1  0  0  0
  9 10  1  0  0  0
  9 11  1  0  0  0
  9 14  2  0  0  0
 10 12  1  0  0  0
 10 34  1  0  0  0
 10 35  1  0  0  0
 11 13  1  0  0  0
 11 36  1  0  0  0
 11 37  1  0  0  0
 12 38  1  0  0  0
 12 39  1  0  0  0
 13 40  1  0  0  0
 13 41  1  0  0  0
 14 15  1  0  0  0
 14 16  1  0  0  0
 15 18  2  0  0  0
 15 19  1  0  0  0
 16 20  2  0  0  0
 16 21  1  0  0  0
 18 23  1  0  0  0
 18 42  1  0  0  0
 19 24  2  0  0  0
 19 43  1  0  0  0
 20 25  1  0  0  0
 20 44  1  0  0  0
 21 26  2  0  0  0
 21 45  1  0  0  0
 22 23  2  0  0  0
 22 24  1  0  0  0
 22 27  1  0  0  0
 23 46  1  0  0  0
 24 47  1  0  0  0
 25 28  2  0  0  0
 25 48  1  0  0  0
 26 28  1  0  0  0
 26 49  1  0  0  0
 28 50  1  0  0  0
 29 32  1  0  0  0
 29 51  1  0  0  0
 29 52  1  0  0  0
 30 33  1  0  0  0
 30 53  1  0  0  0
 30 54  1  0  0  0
 31 55  1  0  0  0
 31 56  1  0  0  0
 32 57  1  0  0  0
 32 58  1  0  0  0
 32 59  1  0  0  0
 33 60  1  0  0  0
 33 61  1  0  0  0
 33 62  1  0  0  0
M  CHG  2  63  -1  64  -1
M  END
> <LID>
L018203

> <PC_CID>
23383824

> <Names>


> <CAS_Numbers>


$$$$
10226564
                    3D
 Structure written by MMmdl.
 65 68  0  0  1  0            999 V2000
   -5.7459    3.6193    1.0075 S   0  0  0  0  0  0
   -2.2221   -4.7243   -2.2476 O   0  0  0  0  0  0
    6.1783   -0.6882    0.0077 O   0  0  0  0  0  0
   -6.5201    2.1526   -0.9904 N   0  0  0  0  0  0
    5.7809    1.5437    0.2308 N   0  0  0  0  0  0
   -0.9625    1.3997    0.6138 C   0  0  0  0  0  0
   -2.7242   -0.3960    0.6309 C   0  0  0  0  0  0
   -1.2330   -0.0981    0.5164 C   0  0  0  0  0  0
   -1.8139    2.1828   -0.4006 C   0  0  0  0  0  0
   -3.5323    0.4169   -0.3925 C   0  0  0  0  0  0
   -0.2721   -1.0417    0.3392 C   0  0  0  0  0  0
   -4.0956    2.7143   -1.1589 C   0  0  0  0  0  0
    1.1591   -0.6966    0.2936 C   0  0  0  0  0  0
   -0.6027   -2.4682    0.1828 C   0  0  0  0  0  0
   -5.4362    2.7581   -0.4978 C   0  0  0  0  0  0
    1.9017   -0.9116   -0.8864 C   0  0  0  0  0  0
    1.8152   -0.1946    1.4385 C   0  0  0  0  0  0
   -1.2722   -2.9270   -0.9730 C   0  0  0  0  0  0
   -0.2098   -3.3989    1.1682 C   0  0  0  0  0  0
    3.9207   -0.0679    0.2032 C   0  0  0  0  0  0
    3.2746   -0.6018   -0.9314 C   0  0  0  0  0  0
    3.1876    0.1165    1.3949 C   0  0  0  0  0  0
   -1.5670   -4.2952   -1.1304 C   0  0  0  0  0  0
   -0.5027   -4.7676    1.0117 C   0  0  0  0  0  0
    5.3873    0.2457    0.1455 C   0  0  0  0  0  0
   -1.1836   -5.2165   -0.1362 C   0  0  0  0  0  0
   -7.4078    3.1036    0.9249 C   0  0  0  0  0  0
   -7.6491    2.3406   -0.1891 C   0  0  0  0  0  0
    7.2094    1.8910    0.1940 C   0  0  0  0  0  0
    4.8748    2.7050    0.2322 C   0  0  0  0  0  0
    7.7541    1.9268   -1.2426 C   0  0  0  0  0  0
    4.7133    3.3223    1.6308 C   0  0  0  0  0  0
    0.0855    1.6463    0.4517 H   0  0  0  0  0  0
   -1.2014    1.7251    1.6270 H   0  0  0  0  0  0
   -2.9549   -1.4544    0.5242 H   0  0  0  0  0  0
   -3.0423   -0.1270    1.6389 H   0  0  0  0  0  0
   -1.6505    3.2513   -0.2537 H   0  0  0  0  0  0
   -1.4895    1.9499   -1.4164 H   0  0  0  0  0  0
   -3.2874    0.0883   -1.4039 H   0  0  0  0  0  0
   -4.5927    0.2119   -0.2447 H   0  0  0  0  0  0
   -3.7117    3.7328   -1.2295 H   0  0  0  0  0  0
   -4.1609    2.2998   -2.1663 H   0  0  0  0  0  0
    1.4182   -1.3155   -1.7641 H   0  0  0  0  0  0
    1.2654   -0.0510    2.3572 H   0  0  0  0  0  0
   -1.5627   -2.2255   -1.7417 H   0  0  0  0  0  0
    0.3169   -3.0636    2.0499 H   0  0  0  0  0  0
    3.8290   -0.7708   -1.8435 H   0  0  0  0  0  0
    3.6758    0.4819    2.2856 H   0  0  0  0  0  0
   -0.2030   -5.4737    1.7720 H   0  0  0  0  0  0
   -1.4053   -6.2675   -0.2507 H   0  0  0  0  0  0
   -8.1049    3.3942    1.6971 H   0  0  0  0  0  0
   -8.5865    1.8947   -0.4879 H   0  0  0  0  0  0
    7.3735    2.8635    0.6586 H   0  0  0  0  0  0
    7.7875    1.1857    0.7938 H   0  0  0  0  0  0
    5.2759    3.4627   -0.4423 H   0  0  0  0  0  0
    3.8950    2.4631   -0.1800 H   0  0  0  0  0  0
    8.8078    2.2057   -1.2483 H   0  0  0  0  0  0
    7.6691    0.9541   -1.7278 H   0  0  0  0  0  0
    7.2165    2.6532   -1.8524 H   0  0  0  0  0  0
    4.0423    4.1805    1.5942 H   0  0  0  0  0  0
    4.2979    2.6143    2.3451 H   0  0  0  0  0  0
    5.6658    3.6714    2.0293 H   0  0  0  0  0  0
   -2.3652   -5.6583   -2.2600 H   0  0  0  0  0  0
   -3.2599    1.8744   -0.2632 N   0  3  2  0  0  0
   -3.5112    2.1345    0.6800 H   0  0  0  0  0  0
  1 15  1  0  0  0
  1 27  1  0  0  0
  2 23  1  0  0  0
  2 63  1  0  0  0
  3 25  2  0  0  0
  4 15  2  0  0  0
  4 28  1  0  0  0
  5 25  1  0  0  0
  5 29  1  0  0  0
  5 30  1  0  0  0
  6  8  1  0  0  0
  6  9  1  0  0  0
  6 33  1  0  0  0
  6 34  1  0  0  0
  7  8  1  0  0  0
  7 10  1  0  0  0
  7 35  1  0  0  0
  7 36  1  0  0  0
  8 11  2  0  0  0
  9 37  1  0  0  0
  9 38  1  0  0  0
  9 64  1  0  0  0
 10 39  1  0  0  0
 10 40  1  0  0  0
 10 64  1  0  0  0
 11 13  1  0  0  0
 11 14  1  0  0  0
 12 15  1  0  0  0
 12 41  1  0  0  0
 12 42  1  0  0  0
 12 64  1  0  0  0
 13 16  2  0  0  0
 13 17  1  0  0  0
 14 18  2  0  0  0
 14 19  1  0  0  0
 16 21  1  0  0  0
 16 43  1  0  0  0
 17 22  2  0  0  0
 17 44  1  0  0  0
 18 23  1  0  0  0
 18 45  1  0  0  0
 19 24  2  0  0  0
 19 46  1  0  0  0
 20 21  2  0  0  0
 20 22  1  0  0  0
 20 25  1  0  0  0
 21 47  1  0  0  0
 22 48  1  0  0  0
 23 26  2  0  0  0
 24 26  1  0  0  0
 24 49  1  0  0  0
 26 50  1  0  0  0
 27 28  2  0  0  0
 27 51  1  0  0  0
 28 52  1  0  0  0
 29 31  1  0  0  0
 29 53  1  0  0  0
 29 54  1  0  0  0
 30 32  1  0  0  0
 30 55  1  0  0  0
 30 56  1  0  0  0
 31 57  1  0  0  0
 31 58  1  0  0  0
 31 59  1  0  0  0
 32 60  1  0  0  0
 32 61  1  0  0  0
 32 62  1  0  0  0
 64 65  1  0  0  0
M  CHG  1  64   1
M  END
> <LID>
L020876

> <PC_CID>
10226564

> <Names>


> <CAS_Numbers>


$$$$
10300086
                    3D
 Structure written by MMmdl.
 72 76  0  0  1  0            999 V2000
    6.1813   -0.2821   -0.2485 O   0  0  0  0  0  0
   -4.4600   -3.6651   -1.4464 N   0  0  0  0  0  0
   -1.0280    2.9220   -1.3892 N   0  0  0  0  0  0
    5.3796   -2.4080   -0.0829 N   0  0  0  0  0  0
   -1.1209    0.5632    0.9531 C   0  0  0  0  0  0
   -2.5018    1.1480    1.2272 C   0  0  0  0  0  0
   -1.1714   -0.9579    0.8710 C   0  0  0  0  0  0
   -3.5252    0.6496    0.1948 C   0  0  0  0  0  0
   -2.2280   -1.4200   -0.1471 C   0  0  0  0  0  0
    0.0016    1.3057    0.7743 C   0  0  0  0  0  0
   -4.6294   -1.3272   -0.7711 C   0  0  0  0  0  0
   -0.0345    2.7806    0.8096 C   0  0  0  0  0  0
    1.3211    0.6882    0.5602 C   0  0  0  0  0  0
   -4.9469   -2.7930   -0.5361 C   0  0  0  0  0  0
   -0.5390    3.5370   -0.2827 C   0  0  0  0  0  0
    0.4907    3.4340    1.9449 C   0  0  0  0  0  0
    2.0018    0.8779   -0.6606 C   0  0  0  0  0  0
    1.9401   -0.0593    1.5853 C   0  0  0  0  0  0
   -0.5208    4.9578   -0.1834 C   0  0  0  0  0  0
   -5.7093   -3.1911    0.5824 C   0  0  0  0  0  0
    3.2712    0.3042   -0.8659 C   0  0  0  0  0  0
    3.2092   -0.6338    1.3816 C   0  0  0  0  0  0
    3.8729   -0.4735    0.1456 C   0  0  0  0  0  0
    0.5005    4.8369    2.0247 C   0  0  0  0  0  0
   -0.0083    5.6002    0.9611 C   0  0  0  0  0  0
   -1.0223    5.7303   -1.2512 C   0  0  0  0  0  0
    5.2389   -1.0562   -0.0771 C   0  0  0  0  0  0
   -5.9745   -4.5629    0.7587 C   0  0  0  0  0  0
   -4.7201   -4.9784   -1.2687 C   0  0  0  0  0  0
   -1.5038    3.6679   -2.4072 C   0  0  0  0  0  0
   -5.4694   -5.4773   -0.1850 C   0  0  0  0  0  0
   -1.5252    5.0733   -2.3876 C   0  0  0  0  0  0
    6.7090   -3.0204   -0.2226 C   0  0  0  0  0  0
    4.2684   -3.3735   -0.0540 C   0  0  0  0  0  0
    7.3949   -3.1823    1.1410 C   0  0  0  0  0  0
    3.6204   -3.5352   -1.4370 C   0  0  0  0  0  0
   -2.5023    2.2366    1.2453 H   0  0  0  0  0  0
   -2.8079    0.8340    2.2258 H   0  0  0  0  0  0
   -1.4156   -1.3464    1.8603 H   0  0  0  0  0  0
   -0.2112   -1.3931    0.5991 H   0  0  0  0  0  0
   -4.5118    1.0354    0.4544 H   0  0  0  0  0  0
   -3.2808    1.0446   -0.7928 H   0  0  0  0  0  0
   -1.9179   -1.1382   -1.1549 H   0  0  0  0  0  0
   -2.2793   -2.5086   -0.1270 H   0  0  0  0  0  0
   -5.5481   -0.7626   -0.6058 H   0  0  0  0  0  0
   -4.3435   -1.1560   -1.8106 H   0  0  0  0  0  0
    0.8877    2.8537    2.7653 H   0  0  0  0  0  0
    1.5496    1.4647   -1.4470 H   0  0  0  0  0  0
    1.4410   -0.1920    2.5341 H   0  0  0  0  0  0
   -6.0854   -2.4661    1.2893 H   0  0  0  0  0  0
    3.7791    0.4591   -1.8071 H   0  0  0  0  0  0
    3.6716   -1.1976    2.1791 H   0  0  0  0  0  0
    0.9003    5.3267    2.9007 H   0  0  0  0  0  0
    0.0017    6.6788    1.0258 H   0  0  0  0  0  0
   -1.0215    6.8098   -1.2042 H   0  0  0  0  0  0
   -6.5549   -4.9073    1.6021 H   0  0  0  0  0  0
   -4.3182   -5.6515   -2.0115 H   0  0  0  0  0  0
   -1.8801    3.1265   -3.2627 H   0  0  0  0  0  0
   -5.6530   -6.5366   -0.0822 H   0  0  0  0  0  0
   -1.9159    5.6328   -3.2248 H   0  0  0  0  0  0
    6.6278   -3.9948   -0.7064 H   0  0  0  0  0  0
    7.3428   -2.4312   -0.8876 H   0  0  0  0  0  0
    4.6329   -4.3456    0.2813 H   0  0  0  0  0  0
    3.5137   -3.1043    0.6819 H   0  0  0  0  0  0
    8.3723   -3.6520    1.0291 H   0  0  0  0  0  0
    7.5454   -2.2176    1.6265 H   0  0  0  0  0  0
    6.8015   -3.8060    1.8101 H   0  0  0  0  0  0
    2.8275   -4.2826   -1.4064 H   0  0  0  0  0  0
    3.1785   -2.6015   -1.7852 H   0  0  0  0  0  0
    4.3510   -3.8575   -2.1794 H   0  0  0  0  0  0
   -3.5653   -0.8339    0.1385 N   0  3  2  0  0  0
   -3.8230   -1.1446    1.0644 H   0  0  0  0  0  0
  1 27  2  0  0  0
  2 14  1  0  0  0
  2 29  2  0  0  0
  3 15  1  0  0  0
  3 30  2  0  0  0
  4 27  1  0  0  0
  4 33  1  0  0  0
  4 34  1  0  0  0
  5  6  1  0  0  0
  5  7  1  0  0  0
  5 10  2  0  0  0
  6  8  1  0  0  0
  6 37  1  0  0  0
  6 38  1  0  0  0
  7  9  1  0  0  0
  7 39  1  0  0  0
  7 40  1  0  0  0
  8 41  1  0  0  0
  8 42  1  0  0  0
  8 71  1  0  0  0
  9 43  1  0  0  0
  9 44  1  0  0  0
  9 71  1  0  0  0
 10 12  1  0  0  0
 10 13  1  0  0  0
 11 14  1  0  0  0
 11 45  1  0  0  0
 11 46  1  0  0  0
 11 71  1  0  0  0
 12 15  1  0  0  0
 12 16  2  0  0  0
 13 17  2  0  0  0
 13 18  1  0  0  0
 14 20  2  0  0  0
 15 19  2  0  0  0
 16 24  1  0  0  0
 16 47  1  0  0  0
 17 21  1  0  0  0
 17 48  1  0  0  0
 18 22  2  0  0  0
 18 49  1  0  0  0
 19 25  1  0  0  0
 19 26  1  0  0  0
 20 28  1  0  0  0
 20 50  1  0  0  0
 21 23  2  0  0  0
 21 51  1  0  0  0
 22 23  1  0  0  0
 22 52  1  0  0  0
 23 27  1  0  0  0
 24 25  2  0  0  0
 24 53  1  0  0  0
 25 54  1  0  0  0
 26 32  2  0  0  0
 26 55  1  0  0  0
 28 31  2  0  0  0
 28 56  1  0  0  0
 29 31  1  0  0  0
 29 57  1  0  0  0
 30 32  1  0  0  0
 30 58  1  0  0  0
 31 59  1  0  0  0
 32 60  1  0  0  0
 33 35  1  0  0  0
 33 61  1  0  0  0
 33 62  1  0  0  0
 34 36  1  0  0  0
 34 63  1  0  0  0
 34 64  1  0  0  0
 35 65  1  0  0  0
 35 66  1  0  0  0
 35 67  1  0  0  0
 36 68  1  0  0  0
 36 69  1  0  0  0
 36 70  1  0  0  0
 71 72  1  0  0  0
M  CHG  1  71   1
M  END
> <LID>
L020882

> <PC_CID>
10300086

> <Names>


> <CAS_Numbers>


$$$$
9927002
                    3D
 Structure written by MMmdl.
 41 43  0  0  1  0            999 V2000
    1.6512    1.3685    1.5003 O   0  0  0  0  0  0
   -1.8970   -3.2044    1.6129 O   0  0  0  0  0  0
   -1.6151    1.3040   -0.4519 C   0  0  1  0  0  0
   -0.5610    1.7864    0.5764 C   0  0  0  0  0  0
   -1.7566   -0.2185   -0.5537 C   0  0  0  0  0  0
    0.8062    1.1867    0.4362 C   0  0  0  0  0  0
    1.4188    0.4950   -0.5848 C   0  0  0  0  0  0
   -3.7383    2.0412   -1.5111 C   0  0  0  0  0  0
   -3.7231    1.5724    0.8943 C   0  0  0  0  0  0
    2.7446    0.1971   -0.1247 C   0  0  0  0  0  0
   -1.7660   -1.0335    0.6019 C   0  0  0  0  0  0
   -1.8664   -0.8275   -1.8236 C   0  0  0  0  0  0
    2.8440    0.7585    1.1729 C   0  0  0  0  0  0
   -1.8871   -2.4320    0.4887 C   0  0  0  0  0  0
   -1.9872   -2.2257   -1.9373 C   0  0  0  0  0  0
    3.8863   -0.4711   -0.6257 C   0  0  0  0  0  0
    4.0059    0.6770    1.9585 C   0  0  0  0  0  0
   -1.9978   -3.0292   -0.7817 C   0  0  0  0  0  0
    5.0648   -0.5663    0.1463 C   0  0  0  0  0  0
    5.1268    0.0053    1.4347 C   0  0  0  0  0  0
   -1.2223    1.6340   -1.4153 H   0  0  0  0  0  0
   -0.9096    1.5905    1.5898 H   0  0  0  0  0  0
   -0.4704    2.8709    0.5076 H   0  0  0  0  0  0
    1.0022    0.2184   -1.5418 H   0  0  0  0  0  0
   -4.6143    2.6760   -1.3731 H   0  0  0  0  0  0
   -3.1693    2.4476   -2.3479 H   0  0  0  0  0  0
   -4.0859    1.0442   -1.7842 H   0  0  0  0  0  0
   -4.5793    2.2338    1.0301 H   0  0  0  0  0  0
   -4.1068    0.5602    0.7624 H   0  0  0  0  0  0
   -3.1445    1.6030    1.8167 H   0  0  0  0  0  0
   -1.6815   -0.5927    1.5840 H   0  0  0  0  0  0
   -1.8574   -0.2243   -2.7198 H   0  0  0  0  0  0
   -2.0707   -2.6829   -2.9124 H   0  0  0  0  0  0
    3.8554   -0.9136   -1.6103 H   0  0  0  0  0  0
    4.0366    1.1205    2.9426 H   0  0  0  0  0  0
   -2.0905   -4.1014   -0.8752 H   0  0  0  0  0  0
    5.9268   -1.0809   -0.2529 H   0  0  0  0  0  0
    6.0329   -0.0722    2.0180 H   0  0  0  0  0  0
   -1.9732   -4.1285    1.4305 H   0  0  0  0  0  0
   -2.9212    2.0073   -0.2755 N   0  3  0  0  0  0
   -2.6777    2.9713   -0.0967 H   0  0  0  0  0  0
  1  6  1  0  0  0
  1 13  1  0  0  0
  2 14  1  0  0  0
  2 39  1  0  0  0
  3  4  1  0  0  0
  3  5  1  0  0  0
  3 21  1  0  0  0
  3 40  1  0  0  0
  4  6  1  0  0  0
  4 22  1  0  0  0
  4 23  1  0  0  0
  5 11  2  0  0  0
  5 12  1  0  0  0
  6  7  2  0  0  0
  7 10  1  0  0  0
  7 24  1  0  0  0
  8 25  1  0  0  0
  8 26  1  0  0  0
  8 27  1  0  0  0
  8 40  1  0  0  0
  9 28  1  0  0  0
  9 29  1  0  0  0
  9 30  1  0  0  0
  9 40  1  0  0  0
 10 13  1  0  0  0
 10 16  2  0  0  0
 11 14  1  0  0  0
 11 31  1  0  0  0
 12 15  2  0  0  0
 12 32  1  0  0  0
 13 17  2  0  0  0
 14 18  2  0  0  0
 15 18  1  0  0  0
 15 33  1  0  0  0
 16 19  1  0  0  0
 16 34  1  0  0  0
 17 20  1  0  0  0
 17 35  1  0  0  0
 18 36  1  0  0  0
 19 20  2  0  0  0
 19 37  1  0  0  0
 20 38  1  0  0  0
 40 41  1  0  0  0
M  CHG  1  40   1
M  END
> <LID>
L015210

> <PC_CID>
9927002

> <Names>


> <CAS_Numbers>


$$$$
11281901
                    3D
 Structure written by MMmdl.
 69 72  0  0  1  0            999 V2000
    2.0791    0.6590    0.5788 O   0  0  0  0  0  0
   -5.0901   -0.1718   -0.8233 O   0  0  0  0  0  0
   -4.3042    1.8254   -0.0558 N   0  0  0  0  0  0
    1.9320    1.9832    1.0788 C   0  0  0  0  0  0
    1.3118    1.9387    2.4756 C   0  0  0  0  0  0
    0.9225    2.8192    0.2848 C   0  0  0  0  0  0
    0.6595    3.3124    2.6724 C   0  0  0  0  0  0
    0.4636    3.9013    1.2671 C   0  0  0  0  0  0
    1.5824   -2.8461   -0.3882 C   0  0  0  0  0  0
    2.6064    0.4791   -0.6831 C   0  0  0  0  0  0
    1.2289   -1.6114   -0.8270 C   0  0  0  0  0  0
    3.0123   -3.3809   -0.3945 C   0  0  0  0  0  0
    0.6063   -3.8679    0.1890 C   0  0  0  0  0  0
    2.2176   -0.6794   -1.3982 C   0  0  0  0  0  0
    3.4211   -3.8728    1.0051 C   0  0  0  0  0  0
    1.0632   -4.3419    1.5786 C   0  0  0  0  0  0
   -0.1531   -1.1114   -0.7344 C   0  0  0  0  0  0
    3.5291    1.3776   -1.2737 C   0  0  0  0  0  0
    2.7309   -0.9144   -2.6921 C   0  0  0  0  0  0
    4.0434    1.1305   -2.5605 C   0  0  0  0  0  0
    3.6438   -0.0149   -3.2713 C   0  0  0  0  0  0
   -0.8957   -0.8583   -1.9065 C   0  0  0  0  0  0
   -0.7266   -0.8198    0.5221 C   0  0  0  0  0  0
   -2.7590   -0.0149   -0.5689 C   0  0  0  0  0  0
   -2.1969   -0.3267   -1.8244 C   0  0  0  0  0  0
   -2.0236   -0.2802    0.6064 C   0  0  0  0  0  0
   -4.1476    0.5482   -0.4919 C   0  0  0  0  0  0
   -5.6465    2.3990    0.1165 C   0  0  0  0  0  0
   -3.2028    2.7716    0.1876 C   0  0  0  0  0  0
   -6.2092    2.0929    1.5115 C   0  0  0  0  0  0
   -2.6974    3.3982   -1.1208 C   0  0  0  0  0  0
    2.8906    2.4977    1.1521 H   0  0  0  0  0  0
    0.5393    1.1694    2.5094 H   0  0  0  0  0  0
    2.0422    1.7042    3.2504 H   0  0  0  0  0  0
    1.3414    3.2371   -0.6308 H   0  0  0  0  0  0
    0.0716    2.1969    0.0038 H   0  0  0  0  0  0
    1.3087    3.9623    3.2602 H   0  0  0  0  0  0
   -0.2858    3.2238    3.2090 H   0  0  0  0  0  0
   -0.5692    4.2002    1.0892 H   0  0  0  0  0  0
    1.0838    4.7913    1.1537 H   0  0  0  0  0  0
    3.0645   -4.2057   -1.1063 H   0  0  0  0  0  0
    3.7347   -2.6398   -0.7332 H   0  0  0  0  0  0
    0.5717   -4.7189   -0.4924 H   0  0  0  0  0  0
   -0.4145   -3.4938    0.2442 H   0  0  0  0  0  0
    4.4099   -4.3309    0.9714 H   0  0  0  0  0  0
    3.4855   -3.0288    1.6936 H   0  0  0  0  0  0
    1.0074   -3.5191    2.2929 H   0  0  0  0  0  0
    0.4034   -5.1280    1.9464 H   0  0  0  0  0  0
    3.8635    2.2623   -0.7551 H   0  0  0  0  0  0
    2.4207   -1.7888   -3.2456 H   0  0  0  0  0  0
    4.7461    1.8216   -3.0024 H   0  0  0  0  0  0
    4.0351   -0.2022   -4.2604 H   0  0  0  0  0  0
   -0.4663   -1.0693   -2.8751 H   0  0  0  0  0  0
   -0.1639   -0.9990    1.4266 H   0  0  0  0  0  0
   -2.7553   -0.1421   -2.7310 H   0  0  0  0  0  0
   -2.4479   -0.0623    1.5759 H   0  0  0  0  0  0
   -5.6181    3.4791   -0.0346 H   0  0  0  0  0  0
   -6.3308    2.0275   -0.6482 H   0  0  0  0  0  0
   -3.5401    3.5666    0.8541 H   0  0  0  0  0  0
   -2.3780    2.3053    0.7232 H   0  0  0  0  0  0
   -7.1973    2.5363    1.6359 H   0  0  0  0  0  0
   -6.3060    1.0189    1.6733 H   0  0  0  0  0  0
   -5.5644    2.4936    2.2941 H   0  0  0  0  0  0
   -1.9214    4.1375   -0.9240 H   0  0  0  0  0  0
   -2.2726    2.6477   -1.7873 H   0  0  0  0  0  0
   -3.5042    3.9017   -1.6542 H   0  0  0  0  0  0
    2.4500   -4.8548    1.5352 N   0  3  0  0  0  0
    2.7305   -5.1243    2.4676 H   0  0  0  0  0  0
    2.4685   -5.6724    0.9424 H   0  0  0  0  0  0
  1  4  1  0  0  0
  1 10  1  0  0  0
  2 27  2  0  0  0
  3 27  1  0  0  0
  3 28  1  0  0  0
  3 29  1  0  0  0
  4  5  1  0  0  0
  4  6  1  0  0  0
  4 32  1  0  0  0
  5  7  1  0  0  0
  5 33  1  0  0  0
  5 34  1  0  0  0
  6  8  1  0  0  0
  6 35  1  0  0  0
  6 36  1  0  0  0
  7  8  1  0  0  0
  7 37  1  0  0  0
  7 38  1  0  0  0
  8 39  1  0  0  0
  8 40  1  0  0  0
  9 11  2  0  0  0
  9 12  1  0  0  0
  9 13  1  0  0  0
 10 14  1  0  0  0
 10 18  2  0  0  0
 11 14  1  0  0  0
 11 17  1  0  0  0
 12 15  1  0  0  0
 12 41  1  0  0  0
 12 42  1  0  0  0
 13 16  1  0  0  0
 13 43  1  0  0  0
 13 44  1  0  0  0
 14 19  2  0  0  0
 15 45  1  0  0  0
 15 46  1  0  0  0
 15 67  1  0  0  0
 16 47  1  0  0  0
 16 48  1  0  0  0
 16 67  1  0  0  0
 17 22  2  0  0  0
 17 23  1  0  0  0
 18 20  1  0  0  0
 18 49  1  0  0  0
 19 21  1  0  0  0
 19 50  1  0  0  0
 20 21  2  0  0  0
 20 51  1  0  0  0
 21 52  1  0  0  0
 22 25  1  0  0  0
 22 53  1  0  0  0
 23 26  2  0  0  0
 23 54  1  0  0  0
 24 25  2  0  0  0
 24 26  1  0  0  0
 24 27  1  0  0  0
 25 55  1  0  0  0
 26 56  1  0  0  0
 28 30  1  0  0  0
 28 57  1  0  0  0
 28 58  1  0  0  0
 29 31  1  0  0  0
 29 59  1  0  0  0
 29 60  1  0  0  0
 30 61  1  0  0  0
 30 62  1  0  0  0
 30 63  1  0  0  0
 31 64  1  0  0  0
 31 65  1  0  0  0
 31 66  1  0  0  0
 67 68  1  0  0  0
 67 69  1  0  0  0
M  CHG  1  67   1
M  END
> <LID>
L023469

> <PC_CID>
11281901

> <Names>


> <CAS_Numbers>


$$$$
44213024
                    3D
 Structure written by MMmdl.
 63 69  0  0  1  0            999 V2000
    0.2420   -2.0258   -1.5632 O   0  0  0  0  0  0
    0.5963    2.2499   -0.4970 O   0  0  0  0  0  0
    0.8559   -4.7360   -0.5656 O   0  0  0  0  0  0
   -2.5084   -0.8784   -1.2132 N   0  0  0  0  0  0
    1.2291   -0.0304   -0.6598 C   0  0  1  0  0  0
    0.8926    1.1214    0.3397 C   0  0  1  0  0  0
    0.0146   -0.6053   -1.4985 C   0  0  2  0  0  0
    2.1916    1.3611    1.1683 C   0  0  1  0  0  0
    2.4256    0.3999   -1.5644 C   0  0  0  0  0  0
    1.6188   -1.2536    0.1204 C   0  0  0  0  0  0
   -0.3375    0.7855    1.2399 C   0  0  0  0  0  0
    2.6467    0.0879    1.9514 C   0  0  0  0  0  0
   -1.2821   -0.4195   -0.7609 C   0  0  0  0  0  0
    3.6554    0.8819   -0.7783 C   0  0  0  0  0  0
    2.3684   -1.2738    1.3086 C   0  0  0  0  0  0
   -1.4603    0.2054    0.4424 C   0  0  0  0  0  0
    1.0588   -2.3449   -0.5166 C   0  0  0  0  0  0
   -0.0997   -0.0814   -2.9459 C   0  0  0  0  0  0
   -2.8641    0.1479    0.7436 C   0  0  0  0  0  0
    4.4091    2.4982    0.9358 C   0  0  0  0  0  0
    2.6496   -2.5522    1.8352 C   0  0  0  0  0  0
    1.3601   -3.6127    0.0204 C   0  0  0  0  0  0
   -3.5107   -0.5451   -0.3227 C   0  0  0  0  0  0
    0.2084    3.4810    0.1025 C   0  0  0  0  0  0
    2.1672   -3.7133    1.1808 C   0  0  0  0  0  0
   -3.6765    0.6011    1.8098 C   0  0  0  0  0  0
    0.2163    4.5572   -0.9880 C   0  0  0  0  0  0
   -4.8987   -0.7731   -0.3298 C   0  0  0  0  0  0
   -5.0686    0.3779    1.8109 C   0  0  0  0  0  0
   -5.6804   -0.3076    0.7435 C   0  0  0  0  0  0
   -0.1906    5.9363   -0.4579 C   0  0  0  0  0  0
    2.0087    2.1449    1.9034 H   0  0  0  0  0  0
    2.1203    1.2130   -2.2236 H   0  0  0  0  0  0
    2.7241   -0.4212   -2.2176 H   0  0  0  0  0  0
   -0.6688    1.6456    1.8189 H   0  0  0  0  0  0
   -0.0599    0.0497    1.9931 H   0  0  0  0  0  0
    2.1181    0.0746    2.9050 H   0  0  0  0  0  0
    3.7003    0.1345    2.2225 H   0  0  0  0  0  0
    4.1795    0.0425   -0.3205 H   0  0  0  0  0  0
    4.3647    1.3424   -1.4671 H   0  0  0  0  0  0
   -0.2565    0.9976   -2.9622 H   0  0  0  0  0  0
    0.7859   -0.3059   -3.5395 H   0  0  0  0  0  0
   -0.9400   -0.5416   -3.4660 H   0  0  0  0  0  0
   -2.6233   -1.3829   -2.0803 H   0  0  0  0  0  0
    5.0447    3.0059    0.2097 H   0  0  0  0  0  0
    4.0739    3.2452    1.6560 H   0  0  0  0  0  0
    5.0237    1.7663    1.4594 H   0  0  0  0  0  0
    3.2107   -2.6468    2.7532 H   0  0  0  0  0  0
   -0.7936    3.4051    0.5241 H   0  0  0  0  0  0
    0.8891    3.7705    0.9019 H   0  0  0  0  0  0
    2.3860   -4.6862    1.5960 H   0  0  0  0  0  0
   -3.2222    1.1272    2.6362 H   0  0  0  0  0  0
    1.2111    4.6198   -1.4303 H   0  0  0  0  0  0
   -0.4609    4.2650   -1.7914 H   0  0  0  0  0  0
   -5.3610   -1.3011   -1.1507 H   0  0  0  0  0  0
    0.3219   -4.5402   -1.3206 H   0  0  0  0  0  0
   -5.6695    0.7337    2.6351 H   0  0  0  0  0  0
   -6.7473   -0.4765    0.7495 H   0  0  0  0  0  0
   -0.1762    6.6789   -1.2561 H   0  0  0  0  0  0
   -1.1978    5.9165   -0.0408 H   0  0  0  0  0  0
    0.4900    6.2751    0.3236 H   0  0  0  0  0  0
    3.2561    1.8681    0.2524 N   0  3  2  0  0  0
    2.8125    2.6201   -0.2572 H   0  0  0  0  0  0
  1  7  1  0  0  0
  1 17  1  0  0  0
  2  6  1  0  0  0
  2 24  1  0  0  0
  3 22  1  0  0  0
  3 56  1  0  0  0
  4 13  1  0  0  0
  4 23  1  0  0  0
  4 44  1  0  0  0
  5  6  1  0  0  0
  5  7  1  0  0  0
  5  9  1  0  0  0
  5 10  1  0  0  0
  6  8  1  0  0  0
  6 11  1  0  0  0
  7 13  1  0  0  0
  7 18  1  0  0  0
  8 12  1  0  0  0
  8 32  1  0  0  0
  8 62  1  0  0  0
  9 14  1  0  0  0
  9 33  1  0  0  0
  9 34  1  0  0  0
 10 15  2  0  0  0
 10 17  1  0  0  0
 11 16  1  0  0  0
 11 35  1  0  0  0
 11 36  1  0  0  0
 12 15  1  0  0  0
 12 37  1  0  0  0
 12 38  1  0  0  0
 13 16  2  0  0  0
 14 39  1  0  0  0
 14 40  1  0  0  0
 14 62  1  0  0  0
 15 21  1  0  0  0
 16 19  1  0  0  0
 17 22  2  0  0  0
 18 41  1  0  0  0
 18 42  1  0  0  0
 18 43  1  0  0  0
 19 23  1  0  0  0
 19 26  2  0  0  0
 20 45  1  0  0  0
 20 46  1  0  0  0
 20 47  1  0  0  0
 20 62  1  0  0  0
 21 25  2  0  0  0
 21 48  1  0  0  0
 22 25  1  0  0  0
 23 28  2  0  0  0
 24 27  1  0  0  0
 24 49  1  0  0  0
 24 50  1  0  0  0
 25 51  1  0  0  0
 26 29  1  0  0  0
 26 52  1  0  0  0
 27 31  1  0  0  0
 27 53  1  0  0  0
 27 54  1  0  0  0
 28 30  1  0  0  0
 28 55  1  0  0  0
 29 30  2  0  0  0
 29 57  1  0  0  0
 30 58  1  0  0  0
 31 59  1  0  0  0
 31 60  1  0  0  0
 31 61  1  0  0  0
 62 63  1  0  0  0
M  CHG  1  62   1
M  END
> <LID>
L014026

> <PC_CID>
44213024

> <Names>


> <CAS_Numbers>


$$$$
44213025
                    3D
 Structure written by MMmdl.
 60 66  0  0  1  0            999 V2000
   -7.2228   -2.5191    0.1651 O   0  0  0  0  0  0
   -4.9062   -4.5623    3.3227 O   0  0  0  0  0  0
   -4.2728   -7.1622    4.4425 O   0  0  0  0  0  0
   -3.0502   -3.1037    1.4202 N   0  0  0  0  0  0
   -6.7491   -4.1253    1.8537 C   0  0  1  0  0  0
   -7.0445   -3.9342    0.3349 C   0  0  1  0  0  0
   -8.3782   -4.6965    0.0748 C   0  0  1  0  0  0
   -5.3675   -3.5980    2.3606 C   0  0  2  0  0  0
   -7.8993   -3.5136    2.6981 C   0  0  0  0  0  0
   -6.6086   -5.5882    2.1545 C   0  0  0  0  0  0
   -5.8575   -4.4274   -0.5521 C   0  0  0  0  0  0
   -8.2785   -6.2172    0.4205 C   0  0  0  0  0  0
   -9.2846   -4.0560    2.3051 C   0  0  0  0  0  0
   -7.3662   -6.6200    1.5823 C   0  0  0  0  0  0
   -4.3527   -3.5412    1.2615 C   0  0  0  0  0  0
   -4.5525   -3.8962   -0.0439 C   0  0  0  0  0  0
   -5.5671   -5.7280    3.0533 C   0  0  0  0  0  0
   -3.3131   -3.6654   -0.7333 C   0  0  0  0  0  0
  -10.8394   -4.3790    0.4076 C   0  0  0  0  0  0
   -7.0836   -7.9166    2.0564 C   0  0  0  0  0  0
   -5.2976   -7.0288    3.5307 C   0  0  0  0  0  0
   -2.3730   -3.1624    0.2165 C   0  0  0  0  0  0
   -7.4696   -2.0007   -1.1375 C   0  0  0  0  0  0
   -6.0779   -8.1157    3.0353 C   0  0  0  0  0  0
   -2.8665   -3.8257   -2.0663 C   0  0  0  0  0  0
   -1.0536   -2.8345   -0.1443 C   0  0  0  0  0  0
   -7.8704   -0.5317   -0.9923 C   0  0  0  0  0  0
   -1.5458   -3.4990   -2.4364 C   0  0  0  0  0  0
   -0.6397   -3.0043   -1.4783 C   0  0  0  0  0  0
   -3.9795   -8.4623    4.9319 C   0  0  0  0  0  0
   -8.6345   -4.6216   -0.9819 H   0  0  0  0  0  0
   -5.4567   -2.6122    2.8185 H   0  0  0  0  0  0
   -7.7278   -3.6928    3.7604 H   0  0  0  0  0  0
   -7.9017   -2.4291    2.5814 H   0  0  0  0  0  0
   -5.8039   -5.5152   -0.5360 H   0  0  0  0  0  0
   -6.0021   -4.1805   -1.6025 H   0  0  0  0  0  0
   -9.2599   -6.6616    0.5787 H   0  0  0  0  0  0
   -7.8798   -6.7319   -0.4543 H   0  0  0  0  0  0
  -10.0568   -3.4556    2.7876 H   0  0  0  0  0  0
   -9.4186   -5.0745    2.6709 H   0  0  0  0  0  0
   -2.6733   -2.7961    2.3053 H   0  0  0  0  0  0
  -10.9463   -4.2946   -0.6742 H   0  0  0  0  0  0
  -11.5671   -3.7060    0.8621 H   0  0  0  0  0  0
  -11.0999   -5.3956    0.7015 H   0  0  0  0  0  0
   -7.6171   -8.7654    1.6545 H   0  0  0  0  0  0
   -6.5752   -2.0650   -1.7565 H   0  0  0  0  0  0
   -8.2681   -2.5415   -1.6435 H   0  0  0  0  0  0
   -5.8978   -9.1270    3.3662 H   0  0  0  0  0  0
   -3.5490   -4.2047   -2.8124 H   0  0  0  0  0  0
   -0.3636   -2.4562    0.5953 H   0  0  0  0  0  0
   -8.0655   -0.0827   -1.9663 H   0  0  0  0  0  0
   -8.7732   -0.4295   -0.3896 H   0  0  0  0  0  0
   -7.0789    0.0437   -0.5115 H   0  0  0  0  0  0
   -1.2265   -3.6293   -3.4601 H   0  0  0  0  0  0
    0.3711   -2.7560   -1.7672 H   0  0  0  0  0  0
   -4.8338   -8.8937    5.4554 H   0  0  0  0  0  0
   -3.6722   -9.1313    4.1271 H   0  0  0  0  0  0
   -3.1549   -8.4014    5.6420 H   0  0  0  0  0  0
   -9.4693   -4.0124    0.8340 N   0  3  2  0  0  0
   -9.3719   -3.0373    0.5855 H   0  0  0  0  0  0
  1  6  1  0  0  0
  1 23  1  0  0  0
  2  8  1  0  0  0
  2 17  1  0  0  0
  3 21  1  0  0  0
  3 30  1  0  0  0
  4 15  1  0  0  0
  4 22  1  0  0  0
  4 41  1  0  0  0
  5  6  1  0  0  0
  5  8  1  0  0  0
  5  9  1  0  0  0
  5 10  1  0  0  0
  6  7  1  0  0  0
  6 11  1  0  0  0
  7 12  1  0  0  0
  7 31  1  0  0  0
  7 59  1  0  0  0
  8 15  1  0  0  0
  8 32  1  0  0  0
  9 13  1  0  0  0
  9 33  1  0  0  0
  9 34  1  0  0  0
 10 14  2  0  0  0
 10 17  1  0  0  0
 11 16  1  0  0  0
 11 35  1  0  0  0
 11 36  1  0  0  0
 12 14  1  0  0  0
 12 37  1  0  0  0
 12 38  1  0  0  0
 13 39  1  0  0  0
 13 40  1  0  0  0
 13 59  1  0  0  0
 14 20  1  0  0  0
 15 16  2  0  0  0
 16 18  1  0  0  0
 17 21  2  0  0  0
 18 22  1  0  0  0
 18 25  2  0  0  0
 19 42  1  0  0  0
 19 43  1  0  0  0
 19 44  1  0  0  0
 19 59  1  0  0  0
 20 24  2  0  0  0
 20 45  1  0  0  0
 21 24  1  0  0  0
 22 26  2  0  0  0
 23 27  1  0  0  0
 23 46  1  0  0  0
 23 47  1  0  0  0
 24 48  1  0  0  0
 25 28  1  0  0  0
 25 49  1  0  0  0
 26 29  1  0  0  0
 26 50  1  0  0  0
 27 51  1  0  0  0
 27 52  1  0  0  0
 27 53  1  0  0  0
 28 29  2  0  0  0
 28 54  1  0  0  0
 29 55  1  0  0  0
 30 56  1  0  0  0
 30 57  1  0  0  0
 30 58  1  0  0  0
 59 60  1  0  0  0
M  CHG  1  59   1
M  END
> <LID>
L014027

> <PC_CID>
44213025

> <Names>


> <CAS_Numbers>


$$$$
44213026
                    3D
 Structure written by MMmdl.
 68 74  0  0  1  0            999 V2000
   -0.9048    1.8448    1.4619 O   0  0  0  0  0  0
    1.1883   -1.9840    0.8037 O   0  0  0  0  0  0
   -2.9060   -0.2521    1.1923 O   0  0  0  0  0  0
   -1.3608    4.6065    0.1343 O   0  0  0  0  0  0
    0.8341    0.3607    0.7586 C   0  0  1  0  0  0
    1.0513   -0.9029   -0.1317 C   0  0  1  0  0  0
   -0.5495    0.4539    1.5167 C   0  0  2  0  0  0
    2.3800   -0.6580   -0.9077 C   0  0  1  0  0  0
    2.0468    0.5150    1.7216 C   0  0  0  0  0  0
    0.7409    1.5766   -0.1220 C   0  0  0  0  0  0
   -0.1535   -1.1799   -1.0903 C   0  0  0  0  0  0
    2.3303    0.6248   -1.7947 C   0  0  0  0  0  0
    3.4077    0.5177    1.0100 C   0  0  0  0  0  0
   -1.6084   -0.2869    0.7561 C   0  0  0  0  0  0
    1.4888    1.8003   -1.2901 C   0  0  0  0  0  0
   -1.4612   -1.0255   -0.3857 C   0  0  0  0  0  0
   -0.2430    2.4008    0.4013 C   0  0  0  0  0  0
   -0.5311    0.0191    2.9970 C   0  0  0  0  0  0
    4.9078   -0.7500   -0.5229 C   0  0  0  0  0  0
   -2.7671   -1.5255   -0.7047 C   0  0  0  0  0  0
    1.2702    3.0359   -1.9285 C   0  0  0  0  0  0
   -0.4441    3.6497   -0.2489 C   0  0  0  0  0  0
    1.3994   -3.3070    0.3228 C   0  0  0  0  0  0
   -3.6317   -1.0200    0.3026 C   0  0  0  0  0  0
    0.3319    3.9524   -1.3968 C   0  0  0  0  0  0
    5.9124   -1.2324    0.5428 C   0  0  0  0  0  0
    4.9985   -1.6995   -1.7367 C   0  0  0  0  0  0
   -3.3509   -2.3325   -1.7089 C   0  0  0  0  0  0
    1.7606   -4.1877    1.5199 C   0  0  0  0  0  0
   -5.0098   -1.2902    0.3360 C   0  0  0  0  0  0
   -4.7338   -2.6171   -1.6934 C   0  0  0  0  0  0
   -5.5622   -2.0992   -0.6753 C   0  0  0  0  0  0
   -2.1804    4.3581    1.2656 C   0  0  0  0  0  0
    2.5050   -1.5079   -1.5735 H   0  0  0  0  0  0
    2.0580   -0.3009    2.4449 H   0  0  0  0  0  0
    1.9528    1.4317    2.3054 H   0  0  0  0  0  0
   -0.0799   -2.1516   -1.5752 H   0  0  0  0  0  0
   -0.1433   -0.4691   -1.9152 H   0  0  0  0  0  0
    1.9043    0.3509   -2.7603 H   0  0  0  0  0  0
    3.3314    0.9868   -2.0271 H   0  0  0  0  0  0
    3.5686    1.4627    0.4906 H   0  0  0  0  0  0
    4.1781    0.4684    1.7767 H   0  0  0  0  0  0
   -0.2432   -1.0279    3.0966 H   0  0  0  0  0  0
    0.1520    0.6195    3.5969 H   0  0  0  0  0  0
   -1.5165    0.1316    3.4497 H   0  0  0  0  0  0
    5.2271    0.2360   -0.8637 H   0  0  0  0  0  0
    1.8007    3.2759   -2.8382 H   0  0  0  0  0  0
    0.4983   -3.6988   -0.1478 H   0  0  0  0  0  0
    2.2067   -3.3504   -0.4067 H   0  0  0  0  0  0
    0.1768    4.8944   -1.9022 H   0  0  0  0  0  0
    6.8997   -1.3890    0.1069 H   0  0  0  0  0  0
    6.0495   -0.5146    1.3499 H   0  0  0  0  0  0
    5.5972   -2.1786    0.9844 H   0  0  0  0  0  0
    6.0331   -1.8234   -2.0581 H   0  0  0  0  0  0
    4.6109   -2.6913   -1.5005 H   0  0  0  0  0  0
    4.4593   -1.3142   -2.6021 H   0  0  0  0  0  0
   -2.7308   -2.7352   -2.4959 H   0  0  0  0  0  0
    1.9273   -5.2192    1.2090 H   0  0  0  0  0  0
    2.6698   -3.8335    2.0063 H   0  0  0  0  0  0
    0.9610   -4.1868    2.2612 H   0  0  0  0  0  0
   -5.6305   -0.8845    1.1209 H   0  0  0  0  0  0
   -5.1622   -3.2362   -2.4682 H   0  0  0  0  0  0
   -6.6192   -2.3221   -0.6726 H   0  0  0  0  0  0
   -2.8292    5.2177    1.4327 H   0  0  0  0  0  0
   -2.8219    3.4898    1.1102 H   0  0  0  0  0  0
   -1.5846    4.2177    2.1683 H   0  0  0  0  0  0
    3.5290   -0.6219    0.0584 N   0  3  2  0  0  0
    3.4055   -1.4565    0.6149 H   0  0  0  0  0  0
  1  7  1  0  0  0
  1 17  1  0  0  0
  2  6  1  0  0  0
  2 23  1  0  0  0
  3 14  1  0  0  0
  3 24  1  0  0  0
  4 22  1  0  0  0
  4 33  1  0  0  0
  5  6  1  0  0  0
  5  7  1  0  0  0
  5  9  1  0  0  0
  5 10  1  0  0  0
  6  8  1  0  0  0
  6 11  1  0  0  0
  7 14  1  0  0  0
  7 18  1  0  0  0
  8 12  1  0  0  0
  8 34  1  0  0  0
  8 67  1  0  0  0
  9 13  1  0  0  0
  9 35  1  0  0  0
  9 36  1  0  0  0
 10 15  2  0  0  0
 10 17  1  0  0  0
 11 16  1  0  0  0
 11 37  1  0  0  0
 11 38  1  0  0  0
 12 15  1  0  0  0
 12 39  1  0  0  0
 12 40  1  0  0  0
 13 41  1  0  0  0
 13 42  1  0  0  0
 13 67  1  0  0  0
 14 16  2  0  0  0
 15 21  1  0  0  0
 16 20  1  0  0  0
 17 22  2  0  0  0
 18 43  1  0  0  0
 18 44  1  0  0  0
 18 45  1  0  0  0
 19 26  1  0  0  0
 19 27  1  0  0  0
 19 46  1  0  0  0
 19 67  1  0  0  0
 20 24  1  0  0  0
 20 28  2  0  0  0
 21 25  2  0  0  0
 21 47  1  0  0  0
 22 25  1  0  0  0
 23 29  1  0  0  0
 23 48  1  0  0  0
 23 49  1  0  0  0
 24 30  2  0  0  0
 25 50  1  0  0  0
 26 51  1  0  0  0
 26 52  1  0  0  0
 26 53  1  0  0  0
 27 54  1  0  0  0
 27 55  1  0  0  0
 27 56  1  0  0  0
 28 31  1  0  0  0
 28 57  1  0  0  0
 29 58  1  0  0  0
 29 59  1  0  0  0
 29 60  1  0  0  0
 30 32  1  0  0  0
 30 61  1  0  0  0
 31 32  2  0  0  0
 31 62  1  0  0  0
 32 63  1  0  0  0
 33 64  1  0  0  0
 33 65  1  0  0  0
 33 66  1  0  0  0
 67 68  1  0  0  0
M  CHG  1  67   1
M  END
> <LID>
L014028

> <PC_CID>
44213026

> <Names>


> <CAS_Numbers>


$$$$
44213020
                    3D
 Structure written by MMmdl.
 57 63  0  0  1  0            999 V2000
    0.1145    1.9383    1.4617 O   0  0  0  0  0  0
    0.7651   -2.4013    0.8895 O   0  0  0  0  0  0
    0.5212    4.5502    0.1467 O   0  0  0  0  0  0
   -2.5482    0.5690    1.2871 N   0  0  0  0  0  0
    1.2360   -0.0739    0.7795 C   0  0  1  0  0  0
    0.9778   -1.3569   -0.0735 C   0  0  1  0  0  0
   -0.0105    0.5074    1.5651 C   0  0  2  0  0  0
    2.2848   -1.5963   -0.8903 C   0  0  1  0  0  0
    2.4676   -0.3075    1.7083 C   0  0  0  0  0  0
    1.5290    1.0744   -0.1443 C   0  0  0  0  0  0
   -0.2807   -1.2168   -0.9868 C   0  0  0  0  0  0
    2.6357   -0.3946   -1.8252 C   0  0  0  0  0  0
   -1.2955    0.1463    0.8737 C   0  0  0  0  0  0
    3.7242   -0.7842    0.9626 C   0  0  0  0  0  0
    2.2647    1.0093   -1.3396 C   0  0  0  0  0  0
   -1.4365   -0.6263   -0.2458 C   0  0  0  0  0  0
    0.8969    2.1902    0.3714 C   0  0  0  0  0  0
   -0.0764    0.1497    3.0651 C   0  0  0  0  0  0
   -2.8428   -0.7012   -0.5318 C   0  0  0  0  0  0
    4.5861   -2.5264   -0.5668 C   0  0  0  0  0  0
    2.4476    2.2342   -2.0154 C   0  0  0  0  0  0
    1.1006    3.4049   -0.3138 C   0  0  0  0  0  0
   -3.5300    0.0654    0.4559 C   0  0  0  0  0  0
    0.5138   -3.7253    0.4311 C   0  0  0  0  0  0
    1.8880    3.4265   -1.4918 C   0  0  0  0  0  0
   -3.6278   -1.3307   -1.5266 C   0  0  0  0  0  0
   -4.9305    0.1964    0.4561 C   0  0  0  0  0  0
   -5.0322   -1.2056   -1.5340 C   0  0  0  0  0  0
   -5.6840   -0.4441   -0.5447 C   0  0  0  0  0  0
    2.1541   -2.4731   -1.5247 H   0  0  0  0  0  0
    2.2287   -1.0593    2.4610 H   0  0  0  0  0  0
    2.7084    0.6033    2.2581 H   0  0  0  0  0  0
   -0.5548   -2.1600   -1.4555 H   0  0  0  0  0  0
   -0.0627   -0.5577   -1.8257 H   0  0  0  0  0  0
    2.0974   -0.5317   -2.7635 H   0  0  0  0  0  0
    3.6867   -0.3964   -2.1097 H   0  0  0  0  0  0
    4.1792    0.0331    0.4022 H   0  0  0  0  0  0
    4.4721   -1.1069    1.6879 H   0  0  0  0  0  0
   -0.1552   -0.9283    3.2091 H   0  0  0  0  0  0
    0.7950    0.5039    3.6147 H   0  0  0  0  0  0
   -0.9438    0.6072    3.5411 H   0  0  0  0  0  0
   -2.6930    1.1625    2.0911 H   0  0  0  0  0  0
    5.2641   -2.8985    0.2019 H   0  0  0  0  0  0
    4.3037   -3.3738   -1.1923 H   0  0  0  0  0  0
    5.1392   -1.8150   -1.1796 H   0  0  0  0  0  0
    2.9924    2.2607   -2.9477 H   0  0  0  0  0  0
    0.5029   -4.3940    1.2915 H   0  0  0  0  0  0
   -0.4592   -3.8175   -0.0495 H   0  0  0  0  0  0
    1.2839   -4.0884   -0.2481 H   0  0  0  0  0  0
    2.0319    4.3574   -2.0205 H   0  0  0  0  0  0
   -3.1427   -1.9171   -2.2928 H   0  0  0  0  0  0
   -5.4237    0.7836    1.2165 H   0  0  0  0  0  0
    0.0095    4.4063    0.9284 H   0  0  0  0  0  0
   -5.6116   -1.6958   -2.3027 H   0  0  0  0  0  0
   -6.7602   -0.3509   -0.5553 H   0  0  0  0  0  0
    3.3934   -1.9106    0.0594 N   0  3  2  0  0  0
    3.0140   -2.6298    0.6601 H   0  0  0  0  0  0
  1  7  1  0  0  0
  1 17  1  0  0  0
  2  6  1  0  0  0
  2 24  1  0  0  0
  3 22  1  0  0  0
  3 53  1  0  0  0
  4 13  1  0  0  0
  4 23  1  0  0  0
  4 42  1  0  0  0
  5  6  1  0  0  0
  5  7  1  0  0  0
  5  9  1  0  0  0
  5 10  1  0  0  0
  6  8  1  0  0  0
  6 11  1  0  0  0
  7 13  1  0  0  0
  7 18  1  0  0  0
  8 12  1  0  0  0
  8 30  1  0  0  0
  8 56  1  0  0  0
  9 14  1  0  0  0
  9 31  1  0  0  0
  9 32  1  0  0  0
 10 15  2  0  0  0
 10 17  1  0  0  0
 11 16  1  0  0  0
 11 33  1  0  0  0
 11 34  1  0  0  0
 12 15  1  0  0  0
 12 35  1  0  0  0
 12 36  1  0  0  0
 13 16  2  0  0  0
 14 37  1  0  0  0
 14 38  1  0  0  0
 14 56  1  0  0  0
 15 21  1  0  0  0
 16 19  1  0  0  0
 17 22  2  0  0  0
 18 39  1  0  0  0
 18 40  1  0  0  0
 18 41  1  0  0  0
 19 23  1  0  0  0
 19 26  2  0  0  0
 20 43  1  0  0  0
 20 44  1  0  0  0
 20 45  1  0  0  0
 20 56  1  0  0  0
 21 25  2  0  0  0
 21 46  1  0  0  0
 22 25  1  0  0  0
 23 27  2  0  0  0
 24 47  1  0  0  0
 24 48  1  0  0  0
 24 49  1  0  0  0
 25 50  1  0  0  0
 26 28  1  0  0  0
 26 51  1  0  0  0
 27 29  1  0  0  0
 27 52  1  0  0  0
 28 29  2  0  0  0
 28 54  1  0  0  0
 29 55  1  0  0  0
 56 57  1  0  0  0
M  CHG  1  56   1
M  END
> <LID>
L014022

> <PC_CID>
44213020

> <Names>


> <CAS_Numbers>


$$$$
44213021
                    3D
 Structure written by MMmdl.
 54 60  0  0  1  0            999 V2000
    0.2061    1.8091    1.4918 O   0  0  0  0  0  0
    0.7060   -2.6512    0.9325 O   0  0  0  0  0  0
    0.6825    4.3651    0.0902 O   0  0  0  0  0  0
   -2.5064    0.6430    1.2651 N   0  0  0  0  0  0
    1.2225   -0.2633    0.8476 C   0  0  1  0  0  0
    0.9252   -1.5659    0.0413 C   0  0  1  0  0  0
    0.0059    0.3885    1.6168 C   0  0  2  0  0  0
    2.2042   -1.8692   -0.7919 C   0  0  1  0  0  0
    2.4616   -0.4925    1.7651 C   0  0  0  0  0  0
    1.5364    0.8419   -0.1245 C   0  0  0  0  0  0
   -0.3640   -1.4991   -0.8290 C   0  0  0  0  0  0
    2.5467   -0.7172   -1.7872 C   0  0  0  0  0  0
   -1.2870    0.0882    0.9136 C   0  0  0  0  0  0
    3.6965   -1.0080    1.0066 C   0  0  0  0  0  0
    2.2348    0.7125   -1.3377 C   0  0  0  0  0  0
   -1.4683   -0.7413   -0.1592 C   0  0  0  0  0  0
    0.9672    1.9989    0.3742 C   0  0  0  0  0  0
   -0.0885    0.0493    3.1185 C   0  0  0  0  0  0
   -2.8684   -0.7053   -0.4832 C   0  0  0  0  0  0
    4.5085   -2.8059   -0.4865 C   0  0  0  0  0  0
    2.4479    1.9090   -2.0545 C   0  0  0  0  0  0
    1.2006    3.1839   -0.3520 C   0  0  0  0  0  0
   -3.5082    0.1797    0.4349 C   0  0  0  0  0  0
    1.9530    3.1383   -1.5517 C   0  0  0  0  0  0
   -3.6824   -1.3236   -1.4617 C   0  0  0  0  0  0
   -4.8904    0.4355    0.3837 C   0  0  0  0  0  0
   -5.0688   -1.0737   -1.5206 C   0  0  0  0  0  0
   -5.6734   -0.1960   -0.5999 C   0  0  0  0  0  0
    2.0373   -2.7802   -1.3691 H   0  0  0  0  0  0
    2.2203   -1.2182    2.5424 H   0  0  0  0  0  0
    2.7258    0.4288    2.2860 H   0  0  0  0  0  0
   -0.6964   -2.4994   -1.1103 H   0  0  0  0  0  0
   -0.1522   -0.9970   -1.7719 H   0  0  0  0  0  0
    1.9684   -0.8736   -2.6980 H   0  0  0  0  0  0
    3.5851   -0.7594   -2.1119 H   0  0  0  0  0  0
    4.1501   -0.2140    0.4128 H   0  0  0  0  0  0
    4.4552   -1.3188    1.7259 H   0  0  0  0  0  0
   -0.2197   -1.0223    3.2713 H   0  0  0  0  0  0
    0.7961    0.3653    3.6704 H   0  0  0  0  0  0
   -0.9370    0.5527    3.5822 H   0  0  0  0  0  0
    0.3662   -3.3853    0.4424 H   0  0  0  0  0  0
   -2.6160    1.2969    2.0267 H   0  0  0  0  0  0
    5.1953   -3.1651    0.2806 H   0  0  0  0  0  0
    4.2051   -3.6666   -1.0833 H   0  0  0  0  0  0
    5.0597   -2.1187   -1.1280 H   0  0  0  0  0  0
    2.9681    1.8864   -3.0008 H   0  0  0  0  0  0
    2.1200    4.0467   -2.1118 H   0  0  0  0  0  0
   -3.2337   -1.9984   -2.1754 H   0  0  0  0  0  0
   -5.3471    1.1107    1.0920 H   0  0  0  0  0  0
    0.1887    4.2653    0.8900 H   0  0  0  0  0  0
   -5.6707   -1.5573   -2.2760 H   0  0  0  0  0  0
   -6.7360   -0.0076   -0.6496 H   0  0  0  0  0  0
    3.3351   -2.1570    0.1429 N   0  3  2  0  0  0
    2.9575   -2.8502    0.7746 H   0  0  0  0  0  0
  1  7  1  0  0  0
  1 17  1  0  0  0
  2  6  1  0  0  0
  2 41  1  0  0  0
  3 22  1  0  0  0
  3 50  1  0  0  0
  4 13  1  0  0  0
  4 23  1  0  0  0
  4 42  1  0  0  0
  5  6  1  0  0  0
  5  7  1  0  0  0
  5  9  1  0  0  0
  5 10  1  0  0  0
  6  8  1  0  0  0
  6 11  1  0  0  0
  7 13  1  0  0  0
  7 18  1  0  0  0
  8 12  1  0  0  0
  8 29  1  0  0  0
  8 53  1  0  0  0
  9 14  1  0  0  0
  9 30  1  0  0  0
  9 31  1  0  0  0
 10 15  2  0  0  0
 10 17  1  0  0  0
 11 16  1  0  0  0
 11 32  1  0  0  0
 11 33  1  0  0  0
 12 15  1  0  0  0
 12 34  1  0  0  0
 12 35  1  0  0  0
 13 16  2  0  0  0
 14 36  1  0  0  0
 14 37  1  0  0  0
 14 53  1  0  0  0
 15 21  1  0  0  0
 16 19  1  0  0  0
 17 22  2  0  0  0
 18 38  1  0  0  0
 18 39  1  0  0  0
 18 40  1  0  0  0
 19 23  1  0  0  0
 19 25  2  0  0  0
 20 43  1  0  0  0
 20 44  1  0  0  0
 20 45  1  0  0  0
 20 53  1  0  0  0
 21 24  2  0  0  0
 21 46  1  0  0  0
 22 24  1  0  0  0
 23 26  2  0  0  0
 24 47  1  0  0  0
 25 27  1  0  0  0
 25 48  1  0  0  0
 26 28  1  0  0  0
 26 49  1  0  0  0
 27 28  2  0  0  0
 27 51  1  0  0  0
 28 52  1  0  0  0
 53 54  1  0  0  0
M  CHG  1  53   1
M  END
> <LID>
L014023

> <PC_CID>
44213021

> <Names>


> <CAS_Numbers>


$$$$
9842132
                    3D
 Structure written by MMmdl.
 48 51  0  0  1  0            999 V2000
    2.7981    3.7643   -0.7899 O   0  0  0  0  0  0
   -1.4388    0.5682    0.4380 N   0  0  0  0  0  0
    0.7645   -2.9107   -0.6123 C   0  0  0  0  0  0
    1.4310   -1.6133   -0.1594 C   0  0  0  0  0  0
   -0.6567   -3.1139   -0.0622 C   0  0  0  0  0  0
    0.7156   -0.5402    0.2588 C   0  0  0  0  0  0
   -1.4356   -1.8241    0.0926 C   0  0  0  0  0  0
   -0.7647   -0.5946    0.2762 C   0  0  0  0  0  0
    2.9597   -1.6250   -0.2128 C   0  0  0  0  0  0
   -2.8436   -1.8381    0.0864 C   0  0  0  0  0  0
    1.4058    0.6903    0.6865 C   0  0  0  0  0  0
   -3.5366   -0.6244    0.2580 C   0  0  0  0  0  0
   -2.7903    0.5713    0.4335 C   0  0  0  0  0  0
    1.7735    1.6591   -0.2703 C   0  0  0  0  0  0
    1.6623    0.9130    2.0550 C   0  0  0  0  0  0
    4.9546   -0.6733   -1.2832 C   0  0  0  0  0  0
    3.1765   -1.5975   -2.6941 C   0  0  0  0  0  0
   -4.9466   -0.6034    0.2562 C   0  0  0  0  0  0
   -3.4964    1.7806    0.6049 C   0  0  0  0  0  0
    2.4278    2.8369    0.1394 C   0  0  0  0  0  0
    2.3127    2.0940    2.4623 C   0  0  0  0  0  0
   -5.6305    0.6140    0.4290 C   0  0  0  0  0  0
   -4.9047    1.8064    0.6034 C   0  0  0  0  0  0
    2.6989    3.0536    1.5055 C   0  0  0  0  0  0
    0.7174   -2.8919   -1.7002 H   0  0  0  0  0  0
    1.3739   -3.7749   -0.3464 H   0  0  0  0  0  0
   -0.5954   -3.5694    0.9269 H   0  0  0  0  0  0
   -1.2062   -3.8144   -0.6923 H   0  0  0  0  0  0
    3.3404   -1.1369    0.6853 H   0  0  0  0  0  0
    3.3382   -2.6470   -0.1680 H   0  0  0  0  0  0
   -3.3815   -2.7661   -0.0441 H   0  0  0  0  0  0
    1.5560    1.4996   -1.3165 H   0  0  0  0  0  0
    1.3653    0.1803    2.7914 H   0  0  0  0  0  0
    5.3206   -0.0941   -2.1317 H   0  0  0  0  0  0
    5.1664   -0.0993   -0.3802 H   0  0  0  0  0  0
    5.5177   -1.6064   -1.2368 H   0  0  0  0  0  0
    3.5110   -2.6357   -2.6980 H   0  0  0  0  0  0
    3.6555   -1.0832   -3.5281 H   0  0  0  0  0  0
    2.1046   -1.5744   -2.8851 H   0  0  0  0  0  0
   -5.5077   -1.5170    0.1227 H   0  0  0  0  0  0
   -2.9494    2.7021    0.7399 H   0  0  0  0  0  0
    2.5148    2.2647    3.5095 H   0  0  0  0  0  0
   -6.7107    0.6332    0.4280 H   0  0  0  0  0  0
   -5.4278    2.7421    0.7363 H   0  0  0  0  0  0
    3.1987    3.9562    1.8256 H   0  0  0  0  0  0
    3.2052    4.5291   -0.4123 H   0  0  0  0  0  0
    3.5039   -0.9345   -1.4112 N   0  3  0  0  0  0
    3.0637   -0.0253   -1.4379 H   0  0  0  0  0  0
  1 20  1  0  0  0
  1 46  1  0  0  0
  2  8  2  0  0  0
  2 13  1  0  0  0
  3  4  1  0  0  0
  3  5  1  0  0  0
  3 25  1  0  0  0
  3 26  1  0  0  0
  4  6  2  0  0  0
  4  9  1  0  0  0
  5  7  1  0  0  0
  5 27  1  0  0  0
  5 28  1  0  0  0
  6  8  1  0  0  0
  6 11  1  0  0  0
  7  8  1  0  0  0
  7 10  2  0  0  0
  9 29  1  0  0  0
  9 30  1  0  0  0
  9 47  1  0  0  0
 10 12  1  0  0  0
 10 31  1  0  0  0
 11 14  2  0  0  0
 11 15  1  0  0  0
 12 13  1  0  0  0
 12 18  2  0  0  0
 13 19  2  0  0  0
 14 20  1  0  0  0
 14 32  1  0  0  0
 15 21  2  0  0  0
 15 33  1  0  0  0
 16 34  1  0  0  0
 16 35  1  0  0  0
 16 36  1  0  0  0
 16 47  1  0  0  0
 17 37  1  0  0  0
 17 38  1  0  0  0
 17 39  1  0  0  0
 17 47  1  0  0  0
 18 22  1  0  0  0
 18 40  1  0  0  0
 19 23  1  0  0  0
 19 41  1  0  0  0
 20 24  2  0  0  0
 21 24  1  0  0  0
 21 42  1  0  0  0
 22 23  2  0  0  0
 22 43  1  0  0  0
 23 44  1  0  0  0
 24 45  1  0  0  0
 47 48  1  0  0  0
M  CHG  1  47   1
M  END
> <LID>
L019397

> <PC_CID>
9842132

> <Names>


> <CAS_Numbers>


$$$$
44213023
                    3D
 Structure written by MMmdl.
 54 60  0  0  1  0            999 V2000
   -0.4721    1.7486   -1.4394 O   0  0  0  0  0  0
   -0.5393   -2.6186   -0.7023 O   0  0  0  0  0  0
   -1.1912    4.3309   -0.2033 O   0  0  0  0  0  0
    2.3517    0.7494   -1.2833 N   0  0  0  0  0  0
   -1.3032   -0.3668   -0.6631 C   0  0  2  0  0  0
   -0.8621   -1.5720    0.2266 C   0  0  1  0  0  0
   -0.1603    0.3439   -1.4977 C   0  0  2  0  0  0
   -2.1088   -1.9414    1.0868 C   0  0  1  0  0  0
   -1.7282    0.7664    0.2299 C   0  0  0  0  0  0
   -2.5087   -0.7988   -1.5551 C   0  0  0  0  0  0
    0.3855   -1.2355    1.1030 C   0  0  0  0  0  0
    1.1744    0.1807   -0.8259 C   0  0  0  0  0  0
   -2.5995   -0.7717    1.9892 C   0  0  0  0  0  0
   -3.6829   -1.3889   -0.7589 C   0  0  0  0  0  0
   -2.4236    0.6501    1.4466 C   0  0  0  0  0  0
    1.4383   -0.5255    0.3150 C   0  0  0  0  0  0
   -1.2588    1.9356   -0.3389 C   0  0  0  0  0  0
   -0.0766   -0.0575   -2.9858 C   0  0  0  0  0  0
    2.8474   -0.4043    0.5692 C   0  0  0  0  0  0
   -2.7511    1.8650    2.0847 C   0  0  0  0  0  0
   -1.6056    3.1376    0.3102 C   0  0  0  0  0  0
    3.4077    0.4099   -0.4597 C   0  0  0  0  0  0
   -2.3639    3.0997    1.5066 C   0  0  0  0  0  0
   -0.0908   -3.8735   -0.2026 C   0  0  0  0  0  0
    3.7282   -0.8885    1.5652 C   0  0  0  0  0  0
    4.7782    0.7240   -0.4982 C   0  0  0  0  0  0
    5.1035   -0.5794    1.5345 C   0  0  0  0  0  0
    5.6293    0.2250    0.5049 C   0  0  0  0  0  0
   -1.8776   -2.7820    1.7404 H   0  0  0  0  0  0
   -2.8723    0.0477   -2.1392 H   0  0  0  0  0  0
   -2.1888   -1.5489   -2.2789 H   0  0  0  0  0  0
    0.7908   -2.1167    1.5967 H   0  0  0  0  0  0
    0.0987   -0.5807    1.9244 H   0  0  0  0  0  0
   -2.0418   -0.8053    2.9257 H   0  0  0  0  0  0
   -3.6422   -0.9165    2.2747 H   0  0  0  0  0  0
   -4.4021   -1.8496   -1.4365 H   0  0  0  0  0  0
   -4.2251   -0.6045   -0.2307 H   0  0  0  0  0  0
    0.1414   -1.1203   -3.0946 H   0  0  0  0  0  0
   -0.9972    0.1583   -3.5267 H   0  0  0  0  0  0
    0.7136    0.4921   -3.4977 H   0  0  0  0  0  0
    2.4009    1.3272   -2.1099 H   0  0  0  0  0  0
   -3.2750    1.8550    3.0293 H   0  0  0  0  0  0
   -2.6174    4.0229    2.0071 H   0  0  0  0  0  0
   -0.0284   -4.5761   -1.0333 H   0  0  0  0  0  0
    0.9070   -3.8105    0.2298 H   0  0  0  0  0  0
   -0.7719   -4.3021    0.5313 H   0  0  0  0  0  0
    3.3401   -1.5055    2.3620 H   0  0  0  0  0  0
    5.1744    1.3431   -1.2894 H   0  0  0  0  0  0
   -0.6815    4.2265   -0.9925 H   0  0  0  0  0  0
    5.7576   -0.9609    2.3049 H   0  0  0  0  0  0
    6.6837    0.4593    0.4863 H   0  0  0  0  0  0
   -3.2075   -2.4065    0.2021 N   0  3  0  0  0  0
   -3.9863   -2.7101    0.7694 H   0  0  0  0  0  0
   -2.8631   -3.1970   -0.3249 H   0  0  0  0  0  0
  1  7  1  0  0  0
  1 17  1  0  0  0
  2  6  1  0  0  0
  2 24  1  0  0  0
  3 21  1  0  0  0
  3 49  1  0  0  0
  4 12  1  0  0  0
  4 22  1  0  0  0
  4 41  1  0  0  0
  5  6  1  0  0  0
  5  7  1  0  0  0
  5  9  1  0  0  0
  5 10  1  0  0  0
  6  8  1  0  0  0
  6 11  1  0  0  0
  7 12  1  0  0  0
  7 18  1  0  0  0
  8 13  1  0  0  0
  8 29  1  0  0  0
  8 52  1  0  0  0
  9 15  2  0  0  0
  9 17  1  0  0  0
 10 14  1  0  0  0
 10 30  1  0  0  0
 10 31  1  0  0  0
 11 16  1  0  0  0
 11 32  1  0  0  0
 11 33  1  0  0  0
 12 16  2  0  0  0
 13 15  1  0  0  0
 13 34  1  0  0  0
 13 35  1  0  0  0
 14 36  1  0  0  0
 14 37  1  0  0  0
 14 52  1  0  0  0
 15 20  1  0  0  0
 16 19  1  0  0  0
 17 21  2  0  0  0
 18 38  1  0  0  0
 18 39  1  0  0  0
 18 40  1  0  0  0
 19 22  1  0  0  0
 19 25  2  0  0  0
 20 23  2  0  0  0
 20 42  1  0  0  0
 21 23  1  0  0  0
 22 26  2  0  0  0
 23 43  1  0  0  0
 24 44  1  0  0  0
 24 45  1  0  0  0
 24 46  1  0  0  0
 25 27  1  0  0  0
 25 47  1  0  0  0
 26 28  1  0  0  0
 26 48  1  0  0  0
 27 28  2  0  0  0
 27 50  1  0  0  0
 28 51  1  0  0  0
 52 53  1  0  0  0
 52 54  1  0  0  0
M  CHG  1  52   1
M  END
> <LID>
L014025

> <PC_CID>
44213023

> <Names>


> <CAS_Numbers>


$$$$
22380575
                    3D
 Structure written by MMmdl.
 76 81  0  0  1  0            999 V2000
   -2.4861    2.3823   -0.8067 O   0  0  0  0  0  0
    4.0458    3.4129    1.3008 O   0  0  0  0  0  0
   -3.7510   -4.4495   -0.7927 O   0  0  0  0  0  0
    4.0646    1.1315    0.9060 N   0  0  0  0  0  0
    5.9684    2.2094    1.0159 N   0  0  0  0  0  0
   -2.2241   -3.6507    0.6826 N   0  0  0  0  0  0
    2.6316    0.7997    0.9063 C   0  0  0  0  0  0
    1.9667    1.0978    2.2635 C   0  0  0  0  0  0
    1.8664    1.5284   -0.2149 C   0  0  0  0  0  0
    0.4718    0.7410    2.2313 C   0  0  0  0  0  0
    0.3744    1.1605   -0.1886 C   0  0  0  0  0  0
   -1.7015    1.2341    1.1696 C   0  0  0  0  0  0
    5.0927    0.1888    0.7026 C   0  0  0  0  0  0
    4.6324    2.3522    1.0940 C   0  0  0  0  0  0
    6.2871    0.8757    0.7733 C   0  0  0  0  0  0
   -2.5059    2.4195    0.6128 C   0  0  0  0  0  0
    5.0589   -1.1983    0.4651 C   0  0  0  0  0  0
   -1.5534   -4.4591    2.8264 C   0  0  0  0  0  0
   -0.7296   -3.2227    2.5008 C   0  0  0  0  0  0
    7.5325    0.2482    0.6155 C   0  0  0  0  0  0
   -2.1422   -4.8753    1.4790 C   0  0  0  0  0  0
   -1.4759   -2.5733    1.3355 C   0  0  0  0  0  0
    6.2990   -1.8604    0.3016 C   0  0  0  0  0  0
    7.5227   -1.1455    0.3758 C   0  0  0  0  0  0
   -3.0162   -3.5396   -0.4086 C   0  0  0  0  0  0
   -3.4919    3.0350   -1.4852 C   0  0  0  0  0  0
   -3.7941    2.6060   -2.8013 C   0  0  0  0  0  0
   -3.0043   -2.2440   -1.1691 C   0  0  0  0  0  0
   -3.0185    1.4658   -3.4519 C   0  0  0  0  0  0
   -3.0254    0.1627   -2.6652 C   0  0  0  0  0  0
   -4.2211    4.1144   -0.9268 C   0  0  0  0  0  0
   -4.2117   -1.5431   -1.3766 C   0  0  0  0  0  0
   -1.8135   -1.7516   -1.7473 C   0  0  0  0  0  0
   -4.2226   -0.3451   -2.1172 C   0  0  0  0  0  0
   -1.8236   -0.5524   -2.4844 C   0  0  0  0  0  0
   -4.8207    3.2428   -3.5313 C   0  0  0  0  0  0
   -5.2431    4.7436   -1.6620 C   0  0  0  0  0  0
   -5.5453    4.3063   -2.9635 C   0  0  0  0  0  0
    2.5249   -0.2690    0.7249 H   0  0  0  0  0  0
    2.0734    2.1514    2.5235 H   0  0  0  0  0  0
    2.4629    0.5330    3.0537 H   0  0  0  0  0  0
    2.2917    1.2695   -1.1853 H   0  0  0  0  0  0
    1.9659    2.6094   -0.1128 H   0  0  0  0  0  0
    0.3457   -0.3349    2.1046 H   0  0  0  0  0  0
    0.0266    1.0006    3.1927 H   0  0  0  0  0  0
   -0.1338    1.7143   -0.9762 H   0  0  0  0  0  0
    0.2484    0.1010   -0.4160 H   0  0  0  0  0  0
   -1.9666    0.3098    0.6554 H   0  0  0  0  0  0
   -2.0116    1.1012    2.2070 H   0  0  0  0  0  0
   -3.5331    2.3231    0.9692 H   0  0  0  0  0  0
   -2.1145    3.3683    0.9824 H   0  0  0  0  0  0
    6.6554    2.9422    1.1149 H   0  0  0  0  0  0
    4.1323   -1.7488    0.4074 H   0  0  0  0  0  0
   -2.3591   -4.1914    3.5114 H   0  0  0  0  0  0
   -0.9657   -5.2497    3.2940 H   0  0  0  0  0  0
    0.2670   -3.5240    2.1751 H   0  0  0  0  0  0
   -0.6138   -2.5541    3.3543 H   0  0  0  0  0  0
   -3.1128   -5.3570    1.6092 H   0  0  0  0  0  0
   -1.4815   -5.5798    0.9719 H   0  0  0  0  0  0
   -0.7716   -2.0768    0.6700 H   0  0  0  0  0  0
   -2.1814   -1.8291    1.7069 H   0  0  0  0  0  0
    8.4572    0.8034    0.6742 H   0  0  0  0  0  0
    6.3143   -2.9247    0.1177 H   0  0  0  0  0  0
    8.4573   -1.6717    0.2479 H   0  0  0  0  0  0
   -3.4177    1.2612   -4.4459 H   0  0  0  0  0  0
   -1.9911    1.8011   -3.5987 H   0  0  0  0  0  0
   -4.0071    4.4807    0.0659 H   0  0  0  0  0  0
   -5.1367   -1.9206   -0.9646 H   0  0  0  0  0  0
   -0.8861   -2.2943   -1.6345 H   0  0  0  0  0  0
   -5.1535    0.1843   -2.2598 H   0  0  0  0  0  0
   -0.9025   -0.1848   -2.9126 H   0  0  0  0  0  0
   -5.0571    2.9190   -4.5344 H   0  0  0  0  0  0
   -5.7942    5.5645   -1.2272 H   0  0  0  0  0  0
   -6.3292    4.7893   -3.5283 H   0  0  0  0  0  0
   -0.2328    1.4596    1.1363 N   0  3  0  0  0  0
   -0.0875    2.4439    1.3119 H   0  0  0  0  0  0
  1 16  1  0  0  0
  1 26  1  0  0  0
  2 14  2  0  0  0
  3 25  2  0  0  0
  4  7  1  0  0  0
  4 13  1  0  0  0
  4 14  1  0  0  0
  5 14  1  0  0  0
  5 15  1  0  0  0
  5 52  1  0  0  0
  6 21  1  0  0  0
  6 22  1  0  0  0
  6 25  1  0  0  0
  7  8  1  0  0  0
  7  9  1  0  0  0
  7 39  1  0  0  0
  8 10  1  0  0  0
  8 40  1  0  0  0
  8 41  1  0  0  0
  9 11  1  0  0  0
  9 42  1  0  0  0
  9 43  1  0  0  0
 10 44  1  0  0  0
 10 45  1  0  0  0
 10 75  1  0  0  0
 11 46  1  0  0  0
 11 47  1  0  0  0
 11 75  1  0  0  0
 12 16  1  0  0  0
 12 48  1  0  0  0
 12 49  1  0  0  0
 12 75  1  0  0  0
 13 15  1  0  0  0
 13 17  2  0  0  0
 15 20  2  0  0  0
 16 50  1  0  0  0
 16 51  1  0  0  0
 17 23  1  0  0  0
 17 53  1  0  0  0
 18 19  1  0  0  0
 18 21  1  0  0  0
 18 54  1  0  0  0
 18 55  1  0  0  0
 19 22  1  0  0  0
 19 56  1  0  0  0
 19 57  1  0  0  0
 20 24  1  0  0  0
 20 62  1  0  0  0
 21 58  1  0  0  0
 21 59  1  0  0  0
 22 60  1  0  0  0
 22 61  1  0  0  0
 23 24  2  0  0  0
 23 63  1  0  0  0
 24 64  1  0  0  0
 25 28  1  0  0  0
 26 27  1  0  0  0
 26 31  2  0  0  0
 27 29  1  0  0  0
 27 36  2  0  0  0
 28 32  2  0  0  0
 28 33  1  0  0  0
 29 30  1  0  0  0
 29 65  1  0  0  0
 29 66  1  0  0  0
 30 34  2  0  0  0
 30 35  1  0  0  0
 31 37  1  0  0  0
 31 67  1  0  0  0
 32 34  1  0  0  0
 32 68  1  0  0  0
 33 35  2  0  0  0
 33 69  1  0  0  0
 34 70  1  0  0  0
 35 71  1  0  0  0
 36 38  1  0  0  0
 36 72  1  0  0  0
 37 38  2  0  0  0
 37 73  1  0  0  0
 38 74  1  0  0  0
 75 76  1  0  0  0
M  CHG  1  75   1
M  END
> <LID>
L020693

> <PC_CID>
22380575

> <Names>


> <CAS_Numbers>


$$$$
9799690
                    3D
 Structure written by MMmdl.
 53 55  0  0  1  0            999 V2000
   -5.3909    1.4426    2.4830 O   0  0  0  0  0  0
    1.4625    3.6065    2.7771 O   0  0  0  0  0  0
   -1.5847   -0.8457    0.3080 C   0  0  1  0  0  0
   -1.5953   -2.3748    0.1144 C   0  0  0  0  0  0
   -0.6617   -0.1329   -0.7015 C   0  0  0  0  0  0
   -0.2455   -3.0594    0.3872 C   0  0  0  0  0  0
    0.8719   -2.6527   -0.5886 C   0  0  0  0  0  0
    0.7991   -0.1519   -0.2783 C   0  0  0  0  0  0
    1.5048   -1.3078   -0.2433 C   0  0  0  0  0  0
   -2.9963   -0.2738    0.2612 C   0  0  0  0  0  0
    2.9661   -1.3786    0.2042 C   0  0  0  0  0  0
    1.4292    1.1376    0.0434 C   0  0  0  0  0  0
   -3.5556    0.3302    1.4084 C   0  0  0  0  0  0
   -3.7571   -0.3398   -0.9271 C   0  0  0  0  0  0
    1.1438    1.7637    1.2738 C   0  0  0  0  0  0
    2.2795    1.7653   -0.8908 C   0  0  0  0  0  0
   -4.8600    0.8612    1.3687 C   0  0  0  0  0  0
   -5.0609    0.1909   -0.9669 C   0  0  0  0  0  0
    5.2854   -0.8928   -0.4429 C   0  0  0  0  0  0
    3.9224   -2.3173   -1.8967 C   0  0  0  0  0  0
   -5.6133    0.7915    0.1804 C   0  0  0  0  0  0
    1.7320    3.0060    1.5821 C   0  0  0  0  0  0
    2.8667    3.0070   -0.5798 C   0  0  0  0  0  0
    2.5959    3.6258    0.6566 C   0  0  0  0  0  0
   -1.2038   -0.6417    1.3101 H   0  0  0  0  0  0
   -1.9371   -2.6260   -0.8904 H   0  0  0  0  0  0
   -2.3306   -2.8062    0.7951 H   0  0  0  0  0  0
   -0.9568    0.9147   -0.7825 H   0  0  0  0  0  0
   -0.7767   -0.5434   -1.7054 H   0  0  0  0  0  0
   -0.3962   -4.1364    0.3044 H   0  0  0  0  0  0
    0.0695   -2.8826    1.4166 H   0  0  0  0  0  0
    0.4962   -2.6306   -1.6122 H   0  0  0  0  0  0
    1.6388   -3.4274   -0.5759 H   0  0  0  0  0  0
    3.1457   -0.6020    0.9485 H   0  0  0  0  0  0
    3.1599   -2.3183    0.7236 H   0  0  0  0  0  0
   -2.9866    0.3894    2.3249 H   0  0  0  0  0  0
   -3.3427   -0.7974   -1.8134 H   0  0  0  0  0  0
    0.4790    1.2910    1.9825 H   0  0  0  0  0  0
    2.4800    1.3012   -1.8454 H   0  0  0  0  0  0
   -5.6375    0.1374   -1.8786 H   0  0  0  0  0  0
    5.9542   -0.6922   -1.2806 H   0  0  0  0  0  0
    5.2820   -0.0061    0.1922 H   0  0  0  0  0  0
    5.6960   -1.7245    0.1314 H   0  0  0  0  0  0
    4.6595   -2.1418   -2.6811 H   0  0  0  0  0  0
    2.9550   -2.4160   -2.3878 H   0  0  0  0  0  0
    4.1638   -3.2633   -1.4104 H   0  0  0  0  0  0
   -6.6138    1.1968    0.1437 H   0  0  0  0  0  0
    3.5211    3.4884   -1.2917 H   0  0  0  0  0  0
    3.0485    4.5790    0.8878 H   0  0  0  0  0  0
   -6.2688    1.7661    2.3517 H   0  0  0  0  0  0
    1.8958    4.4394    2.8833 H   0  0  0  0  0  0
    3.9199   -1.2021   -0.9219 N   0  3  0  0  0  0
    3.6131   -0.3818   -1.4252 H   0  0  0  0  0  0
  1 17  1  0  0  0
  1 50  1  0  0  0
  2 22  1  0  0  0
  2 51  1  0  0  0
  3  4  1  0  0  0
  3  5  1  0  0  0
  3 10  1  0  0  0
  3 25  1  0  0  0
  4  6  1  0  0  0
  4 26  1  0  0  0
  4 27  1  0  0  0
  5  8  1  0  0  0
  5 28  1  0  0  0
  5 29  1  0  0  0
  6  7  1  0  0  0
  6 30  1  0  0  0
  6 31  1  0  0  0
  7  9  1  0  0  0
  7 32  1  0  0  0
  7 33  1  0  0  0
  8  9  2  0  0  0
  8 12  1  0  0  0
  9 11  1  0  0  0
 10 13  2  0  0  0
 10 14  1  0  0  0
 11 34  1  0  0  0
 11 35  1  0  0  0
 11 52  1  0  0  0
 12 15  2  0  0  0
 12 16  1  0  0  0
 13 17  1  0  0  0
 13 36  1  0  0  0
 14 18  2  0  0  0
 14 37  1  0  0  0
 15 22  1  0  0  0
 15 38  1  0  0  0
 16 23  2  0  0  0
 16 39  1  0  0  0
 17 21  2  0  0  0
 18 21  1  0  0  0
 18 40  1  0  0  0
 19 41  1  0  0  0
 19 42  1  0  0  0
 19 43  1  0  0  0
 19 52  1  0  0  0
 20 44  1  0  0  0
 20 45  1  0  0  0
 20 46  1  0  0  0
 20 52  1  0  0  0
 21 47  1  0  0  0
 22 24  2  0  0  0
 23 24  1  0  0  0
 23 48  1  0  0  0
 24 49  1  0  0  0
 52 53  1  0  0  0
M  CHG  1  52   1
M  END
> <LID>
L019786

> <PC_CID>
9799690

> <Names>


> <CAS_Numbers>


$$$$
19435301
                    3D
 Structure written by MMmdl.
 53 57  0  0  1  0            999 V2000
   -4.4526   -2.7653    1.4729 O   0  0  0  0  0  0
    2.2796    0.1315   -1.4496 N   0  0  0  0  0  0
   -1.4131    0.6586   -0.4512 C   0  0  2  0  0  0
   -1.0339    1.1987    0.9751 C   0  0  1  0  0  0
   -0.1849    0.8254   -1.4085 C   0  0  0  0  0  0
   -2.6038    1.4947   -1.0016 C   0  0  0  0  0  0
    0.2034    0.4885    1.5890 C   0  0  0  0  0  0
   -0.8544    2.7340    0.9845 C   0  0  0  0  0  0
    1.0990    0.4043   -0.7675 C   0  0  0  0  0  0
    1.2839    0.2567    0.5768 C   0  0  0  0  0  0
   -2.4074    3.0194   -0.8996 C   0  0  0  0  0  0
   -1.8580   -0.8227   -0.3190 C   0  0  0  0  0  0
    2.6439   -0.1511    0.7622 C   0  0  0  0  0  0
    3.2557   -0.2270   -0.5258 C   0  0  0  0  0  0
   -1.9827    4.8932    0.6356 C   0  0  0  0  0  0
   -2.9583   -1.1531    0.5125 C   0  0  0  0  0  0
   -1.2030   -1.8861   -0.9946 C   0  0  0  0  0  0
    2.4500    0.2011   -2.8893 C   0  0  0  0  0  0
    3.4409   -0.4697    1.8869 C   0  0  0  0  0  0
    4.6043   -0.6079   -0.6761 C   0  0  0  0  0  0
   -3.3902   -2.4845    0.6642 C   0  0  0  0  0  0
   -1.6329   -3.2185   -0.8439 C   0  0  0  0  0  0
    4.7897   -0.8499    1.7405 C   0  0  0  0  0  0
   -2.7270   -3.5210   -0.0155 C   0  0  0  0  0  0
    5.3716   -0.9197    0.4609 C   0  0  0  0  0  0
   -1.8624    1.0197    1.6604 H   0  0  0  0  0  0
   -0.0558    1.8697   -1.6839 H   0  0  0  0  0  0
   -0.3487    0.3178   -2.3591 H   0  0  0  0  0  0
   -3.5160    1.2636   -0.4526 H   0  0  0  0  0  0
   -2.8085    1.2152   -2.0359 H   0  0  0  0  0  0
   -0.1085   -0.4759    1.9914 H   0  0  0  0  0  0
    0.5875    1.0505    2.4408 H   0  0  0  0  0  0
   -0.6584    3.0670    2.0048 H   0  0  0  0  0  0
    0.0117    3.0318    0.3917 H   0  0  0  0  0  0
   -1.6390    3.3696   -1.5887 H   0  0  0  0  0  0
   -3.3308    3.5160   -1.2007 H   0  0  0  0  0  0
   -2.9133    5.3679    0.3228 H   0  0  0  0  0  0
   -1.8066    5.1650    1.6769 H   0  0  0  0  0  0
   -1.1705    5.3029    0.0333 H   0  0  0  0  0  0
   -3.4898   -0.3835    1.0514 H   0  0  0  0  0  0
   -0.3538   -1.7198   -1.6373 H   0  0  0  0  0  0
    3.5066    0.2632   -3.1486 H   0  0  0  0  0  0
    2.0218   -0.6888   -3.3510 H   0  0  0  0  0  0
    1.9481    1.0853   -3.2829 H   0  0  0  0  0  0
    3.0067   -0.4217    2.8746 H   0  0  0  0  0  0
    5.0519   -0.6631   -1.6570 H   0  0  0  0  0  0
   -1.1182   -4.0118   -1.3658 H   0  0  0  0  0  0
    5.3794   -1.0896    2.6133 H   0  0  0  0  0  0
   -3.0509   -4.5455    0.0956 H   0  0  0  0  0  0
    6.4057   -1.2125    0.3524 H   0  0  0  0  0  0
   -4.6613   -3.6863    1.5068 H   0  0  0  0  0  0
   -2.0676    3.4242    0.4845 N   0  3  2  0  0  0
   -2.8330    3.1210    1.0703 H   0  0  0  0  0  0
  1 21  1  0  0  0
  1 51  1  0  0  0
  2  9  1  0  0  0
  2 14  1  0  0  0
  2 18  1  0  0  0
  3  4  1  0  0  0
  3  5  1  0  0  0
  3  6  1  0  0  0
  3 12  1  0  0  0
  4  7  1  0  0  0
  4  8  1  0  0  0
  4 26  1  0  0  0
  5  9  1  0  0  0
  5 27  1  0  0  0
  5 28  1  0  0  0
  6 11  1  0  0  0
  6 29  1  0  0  0
  6 30  1  0  0  0
  7 10  1  0  0  0
  7 31  1  0  0  0
  7 32  1  0  0  0
  8 33  1  0  0  0
  8 34  1  0  0  0
  8 52  1  0  0  0
  9 10  2  0  0  0
 10 13  1  0  0  0
 11 35  1  0  0  0
 11 36  1  0  0  0
 11 52  1  0  0  0
 12 16  2  0  0  0
 12 17  1  0  0  0
 13 14  1  0  0  0
 13 19  2  0  0  0
 14 20  2  0  0  0
 15 37  1  0  0  0
 15 38  1  0  0  0
 15 39  1  0  0  0
 15 52  1  0  0  0
 16 21  1  0  0  0
 16 40  1  0  0  0
 17 22  2  0  0  0
 17 41  1  0  0  0
 18 42  1  0  0  0
 18 43  1  0  0  0
 18 44  1  0  0  0
 19 23  1  0  0  0
 19 45  1  0  0  0
 20 25  1  0  0  0
 20 46  1  0  0  0
 21 24  2  0  0  0
 22 24  1  0  0  0
 22 47  1  0  0  0
 23 25  2  0  0  0
 23 48  1  0  0  0
 24 49  1  0  0  0
 25 50  1  0  0  0
 52 53  1  0  0  0
M  CHG  1  52   1
M  END
> <LID>
L008275

> <PC_CID>
19435301

> <Names>


> <CAS_Numbers>


$$$$
18791751
                    3D
 Structure written by MMmdl.
 43 45  0  0  1  0            999 V2000
    2.0118    0.0194    2.1104 S   0  0  0  0  0  0
    4.0455    1.4200   -1.1925 O   0  0  0  0  0  0
   -4.3116   -0.5620   -0.1022 O   0  0  0  0  0  0
    3.0813    0.3427   -1.2808 N   0  0  0  0  0  0
    0.5871   -0.0513   -1.1104 C   0  0  1  0  0  0
    1.8240    0.8178   -0.7031 C   0  0  1  0  0  0
    1.8793    1.2790    0.7819 C   0  0  1  0  0  0
    0.8545   -1.5922   -1.0024 C   0  0  0  0  0  0
   -0.6745    0.3580   -0.3162 C   0  0  0  0  0  0
    0.6261    2.1211    1.0328 C   0  0  0  0  0  0
   -0.6509    1.3759    0.6769 C   0  0  0  0  0  0
    0.3141    0.2547   -2.6066 C   0  0  0  0  0  0
    0.7578   -2.2639    0.3840 C   0  0  0  0  0  0
    2.0997   -2.5726    1.0764 C   0  0  0  0  0  0
    2.9776   -1.3704    1.4608 C   0  0  0  0  0  0
   -1.9020   -0.2970   -0.5836 C   0  0  0  0  0  0
   -1.8326    1.7156    1.3653 C   0  0  0  0  0  0
   -3.0898    0.0399    0.1108 C   0  0  0  0  0  0
   -3.0394    1.0531    1.0847 C   0  0  0  0  0  0
   -4.3894   -1.5974   -1.0710 C   0  0  0  0  0  0
    1.6686    1.7592   -1.2341 H   0  0  0  0  0  0
    2.7375    1.9343    0.9271 H   0  0  0  0  0  0
    1.7861   -1.8768   -1.4909 H   0  0  0  0  0  0
    0.0979   -2.0903   -1.6096 H   0  0  0  0  0  0
    0.6606    3.0326    0.4348 H   0  0  0  0  0  0
    0.5930    2.4421    2.0750 H   0  0  0  0  0  0
    0.0810    1.3086   -2.7638 H   0  0  0  0  0  0
    1.1764    0.0153   -3.2296 H   0  0  0  0  0  0
   -0.5251   -0.3166   -3.0030 H   0  0  0  0  0  0
    0.2627   -3.2253    0.2417 H   0  0  0  0  0  0
    0.0913   -1.7239    1.0545 H   0  0  0  0  0  0
    1.8720   -3.1250    1.9889 H   0  0  0  0  0  0
    2.6832   -3.2578    0.4607 H   0  0  0  0  0  0
    3.5205   -0.3985   -0.7537 H   0  0  0  0  0  0
    3.6521   -1.6889    2.2560 H   0  0  0  0  0  0
    3.6370   -1.0679    0.6566 H   0  0  0  0  0  0
   -1.9176   -1.0699   -1.3350 H   0  0  0  0  0  0
   -1.8174    2.4895    2.1188 H   0  0  0  0  0  0
   -3.9354    1.3244    1.6233 H   0  0  0  0  0  0
    4.1200    1.5486   -0.2589 H   0  0  0  0  0  0
   -5.4119   -1.9720   -1.1156 H   0  0  0  0  0  0
   -4.1284   -1.2333   -2.0656 H   0  0  0  0  0  0
   -3.7423   -2.4363   -0.8111 H   0  0  0  0  0  0
  1  7  1  0  0  0
  1 15  1  0  0  0
  2  4  1  0  0  0
  2 40  1  0  0  0
  3 18  1  0  0  0
  3 20  1  0  0  0
  4  6  1  0  0  0
  4 34  1  0  0  0
  5  6  1  0  0  0
  5  8  1  0  0  0
  5  9  1  0  0  0
  5 12  1  0  0  0
  6  7  1  0  0  0
  6 21  1  0  0  0
  7 10  1  0  0  0
  7 22  1  0  0  0
  8 13  1  0  0  0
  8 23  1  0  0  0
  8 24  1  0  0  0
  9 11  2  0  0  0
  9 16  1  0  0  0
 10 11  1  0  0  0
 10 25  1  0  0  0
 10 26  1  0  0  0
 11 17  1  0  0  0
 12 27  1  0  0  0
 12 28  1  0  0  0
 12 29  1  0  0  0
 13 14  1  0  0  0
 13 30  1  0  0  0
 13 31  1  0  0  0
 14 15  1  0  0  0
 14 32  1  0  0  0
 14 33  1  0  0  0
 15 35  1  0  0  0
 15 36  1  0  0  0
 16 18  2  0  0  0
 16 37  1  0  0  0
 17 19  2  0  0  0
 17 38  1  0  0  0
 18 19  1  0  0  0
 19 39  1  0  0  0
 20 41  1  0  0  0
 20 42  1  0  0  0
 20 43  1  0  0  0
M  END
> <LID>
L016170

> <PC_CID>
18791751

> <Names>


> <CAS_Numbers>


$$$$
18791752
                    3D
 Structure written by MMmdl.
 43 45  0  0  1  0            999 V2000
    2.3372    1.1914    1.5824 S   0  0  0  0  0  0
   -4.0807   -0.6817    0.4265 O   0  0  0  0  0  0
    0.7166   -0.5217   -1.0624 C   0  0  1  0  0  0
    1.8951    0.4914   -1.2230 C   0  0  1  0  0  0
    2.0027    1.6221   -0.1705 C   0  0  1  0  0  0
    1.1136   -1.7876   -0.2303 C   0  0  0  0  0  0
   -0.5335    0.1699   -0.4741 C   0  0  0  0  0  0
    0.6970    2.4214   -0.2309 C   0  0  0  0  0  0
   -0.5359    1.5402   -0.0907 C   0  0  0  0  0  0
    0.3585   -1.0167   -2.4888 C   0  0  0  0  0  0
    1.1303   -1.6831    1.3095 C   0  0  0  0  0  0
    2.5235   -1.5684    1.9570 C   0  0  0  0  0  0
    3.3454   -0.3154    1.6150 C   0  0  0  0  0  0
   -1.7213   -0.5830   -0.3024 C   0  0  0  0  0  0
   -1.7064    2.1197    0.4382 C   0  0  0  0  0  0
   -2.8968   -0.0024    0.2335 C   0  0  0  0  0  0
   -2.8743    1.3554    0.5985 C   0  0  0  0  0  0
   -4.1296   -2.0576    0.0781 C   0  0  0  0  0  0
    1.6667    1.0509   -2.1321 H   0  0  0  0  0  0
    2.8177    2.2851   -0.4639 H   0  0  0  0  0  0
    2.0446   -2.2285   -0.5858 H   0  0  0  0  0  0
    0.3748   -2.5591   -0.4509 H   0  0  0  0  0  0
    0.6233    2.9470   -1.1838 H   0  0  0  0  0  0
    0.6936    3.1934    0.5401 H   0  0  0  0  0  0
    0.0289   -0.1965   -3.1281 H   0  0  0  0  0  0
    1.2093   -1.4917   -2.9778 H   0  0  0  0  0  0
   -0.4463   -1.7521   -2.4844 H   0  0  0  0  0  0
    0.6881   -2.6003    1.7008 H   0  0  0  0  0  0
    0.4692   -0.8987    1.6747 H   0  0  0  0  0  0
    2.3802   -1.5900    3.0381 H   0  0  0  0  0  0
    3.1125   -2.4565    1.7253 H   0  0  0  0  0  0
    3.8561    0.6033   -1.8086 H   0  0  0  0  0  0
    3.5230   -0.6836   -0.8313 H   0  0  0  0  0  0
    4.0912   -0.1814    2.3991 H   0  0  0  0  0  0
    3.9281   -0.4389    0.7104 H   0  0  0  0  0  0
   -1.7157   -1.6228   -0.5872 H   0  0  0  0  0  0
   -1.7129    3.1605    0.7277 H   0  0  0  0  0  0
   -3.7618    1.8155    1.0078 H   0  0  0  0  0  0
   -5.1239   -2.4480    0.2941 H   0  0  0  0  0  0
   -3.9414   -2.2064   -0.9861 H   0  0  0  0  0  0
   -3.4133   -2.6415    0.6578 H   0  0  0  0  0  0
    3.1842   -0.1208   -1.5978 N   0  3  0  0  0  0
    3.0544   -0.7060   -2.4107 H   0  0  0  0  0  0
  1  5  1  0  0  0
  1 13  1  0  0  0
  2 16  1  0  0  0
  2 18  1  0  0  0
  3  4  1  0  0  0
  3  6  1  0  0  0
  3  7  1  0  0  0
  3 10  1  0  0  0
  4  5  1  0  0  0
  4 19  1  0  0  0
  4 42  1  0  0  0
  5  8  1  0  0  0
  5 20  1  0  0  0
  6 11  1  0  0  0
  6 21  1  0  0  0
  6 22  1  0  0  0
  7  9  2  0  0  0
  7 14  1  0  0  0
  8  9  1  0  0  0
  8 23  1  0  0  0
  8 24  1  0  0  0
  9 15  1  0  0  0
 10 25  1  0  0  0
 10 26  1  0  0  0
 10 27  1  0  0  0
 11 12  1  0  0  0
 11 28  1  0  0  0
 11 29  1  0  0  0
 12 13  1  0  0  0
 12 30  1  0  0  0
 12 31  1  0  0  0
 13 34  1  0  0  0
 13 35  1  0  0  0
 14 16  2  0  0  0
 14 36  1  0  0  0
 15 17  2  0  0  0
 15 37  1  0  0  0
 16 17  1  0  0  0
 17 38  1  0  0  0
 18 39  1  0  0  0
 18 40  1  0  0  0
 18 41  1  0  0  0
 32 42  1  0  0  0
 33 42  1  0  0  0
 42 43  1  0  0  0
M  CHG  1  42   1
M  END
> <LID>
L016171

> <PC_CID>
18791752

> <Names>


> <CAS_Numbers>


$$$$
18791754
                    3D
 Structure written by MMmdl.
 40 42  0  0  1  0            999 V2000
    1.6882    0.1035    2.1197 S   0  0  0  0  0  0
    3.7037    1.6612   -1.1222 O   0  0  0  0  0  0
   -4.4051   -1.0921   -0.3658 O   0  0  0  0  0  0
    2.8441    0.5008   -1.2347 N   0  0  0  0  0  0
    0.3918   -0.1163   -1.1488 C   0  0  1  0  0  0
    1.5293    0.8639   -0.7061 C   0  0  1  0  0  0
    1.4890    1.3375    0.7756 C   0  0  1  0  0  0
    0.7922   -1.6260   -1.0174 C   0  0  0  0  0  0
   -0.9289    0.1815   -0.4035 C   0  0  0  0  0  0
    0.1563    2.0635    0.9752 C   0  0  0  0  0  0
   -1.0347    1.2035    0.5820 C   0  0  0  0  0  0
    0.1454    0.1544   -2.6562 C   0  0  0  0  0  0
    0.7112   -2.2946    0.3715 C   0  0  0  0  0  0
    2.0514   -2.4746    1.1110 C   0  0  0  0  0  0
    2.8006   -1.1950    1.5176 C   0  0  0  0  0  0
   -2.0823   -0.5823   -0.7082 C   0  0  0  0  0  0
   -2.2670    1.4400    1.2271 C   0  0  0  0  0  0
   -3.3072   -0.3428   -0.0576 C   0  0  0  0  0  0
   -3.4002    0.6707    0.9109 C   0  0  0  0  0  0
    1.3086    1.7840   -1.2511 H   0  0  0  0  0  0
    2.2784    2.0691    0.9446 H   0  0  0  0  0  0
    1.7610   -1.8290   -1.4734 H   0  0  0  0  0  0
    0.1026   -2.1934   -1.6432 H   0  0  0  0  0  0
    0.1293    2.9708    0.3705 H   0  0  0  0  0  0
    0.0574    2.3864    2.0126 H   0  0  0  0  0  0
   -0.1758    1.1819   -2.8316 H   0  0  0  0  0  0
    1.0471   -0.0106   -3.2468 H   0  0  0  0  0  0
   -0.6249   -0.4930   -3.0753 H   0  0  0  0  0  0
    0.3116   -3.2984    0.2219 H   0  0  0  0  0  0
   -0.0247   -1.8141    1.0143 H   0  0  0  0  0  0
    1.8446   -3.0426    2.0188 H   0  0  0  0  0  0
    2.7168   -3.1050    0.5202 H   0  0  0  0  0  0
    3.3290   -0.1946   -0.6857 H   0  0  0  0  0  0
    3.4711   -1.4465    2.3397 H   0  0  0  0  0  0
    3.4594   -0.8370    0.7359 H   0  0  0  0  0  0
   -2.0327   -1.3656   -1.4494 H   0  0  0  0  0  0
   -2.3474    2.2165    1.9738 H   0  0  0  0  0  0
   -4.3381    0.8593    1.4124 H   0  0  0  0  0  0
    3.7329    1.8014   -0.1878 H   0  0  0  0  0  0
   -4.2362   -1.7449   -1.0275 H   0  0  0  0  0  0
  1  7  1  0  0  0
  1 15  1  0  0  0
  2  4  1  0  0  0
  2 39  1  0  0  0
  3 18  1  0  0  0
  3 40  1  0  0  0
  4  6  1  0  0  0
  4 33  1  0  0  0
  5  6  1  0  0  0
  5  8  1  0  0  0
  5  9  1  0  0  0
  5 12  1  0  0  0
  6  7  1  0  0  0
  6 20  1  0  0  0
  7 10  1  0  0  0
  7 21  1  0  0  0
  8 13  1  0  0  0
  8 22  1  0  0  0
  8 23  1  0  0  0
  9 11  2  0  0  0
  9 16  1  0  0  0
 10 11  1  0  0  0
 10 24  1  0  0  0
 10 25  1  0  0  0
 11 17  1  0  0  0
 12 26  1  0  0  0
 12 27  1  0  0  0
 12 28  1  0  0  0
 13 14  1  0  0  0
 13 29  1  0  0  0
 13 30  1  0  0  0
 14 15  1  0  0  0
 14 31  1  0  0  0
 14 32  1  0  0  0
 15 34  1  0  0  0
 15 35  1  0  0  0
 16 18  2  0  0  0
 16 36  1  0  0  0
 17 19  2  0  0  0
 17 37  1  0  0  0
 18 19  1  0  0  0
 19 38  1  0  0  0
M  END
> <LID>
L016175

> <PC_CID>
18791754

> <Names>


> <CAS_Numbers>


$$$$
273032
                    3D
 Structure written by MMmdl.
 43 47  0  0  1  0            999 V2000
    2.0413    0.4339    1.1642 O   0  0  0  0  0  0
    2.4802    3.2868    0.1348 O   0  0  0  0  0  0
    3.6096   -2.0133    0.5481 O   0  0  0  0  0  0
   -0.2405    0.6834    0.6008 C   0  0  1  0  0  0
   -1.2499    1.3338   -0.3610 C   0  0  2  0  0  0
    1.0750    1.4730    0.8949 C   0  0  2  0  0  0
   -2.3242    0.2644   -0.6759 C   0  0  1  0  0  0
   -0.9993    0.3752    1.9166 C   0  0  0  0  0  0
    0.3171   -0.5826    0.0323 C   0  0  0  0  0  0
   -0.5697    1.9526   -1.5923 C   0  0  0  0  0  0
    1.6016    2.2805   -0.3248 C   0  0  1  0  0  0
   -1.7133   -1.0157   -1.3281 C   0  0  0  0  0  0
    0.4897    2.9648   -1.1391 C   0  0  0  0  0  0
   -2.2264   -0.5311    1.6900 C   0  0  0  0  0  0
   -0.3523   -1.4837   -0.8078 C   0  0  0  0  0  0
    1.6190   -0.6730    0.4805 C   0  0  0  0  0  0
   -4.3152   -0.8121    0.3958 C   0  0  0  0  0  0
    0.3724   -2.6432   -1.1570 C   0  0  0  0  0  0
    2.3222   -1.8437    0.1318 C   0  0  0  0  0  0
    1.6926   -2.8291   -0.6713 C   0  0  0  0  0  0
   -1.7359    2.1639    0.1559 H   0  0  0  0  0  0
    0.9423    2.1320    1.7545 H   0  0  0  0  0  0
   -3.0450    0.6927   -1.3740 H   0  0  0  0  0  0
   -1.3271    1.3107    2.3722 H   0  0  0  0  0  0
   -0.3339   -0.0926    2.6437 H   0  0  0  0  0  0
   -1.3130    2.4506   -2.2156 H   0  0  0  0  0  0
   -0.1055    1.1864   -2.2141 H   0  0  0  0  0  0
    2.1565    1.6227   -0.9954 H   0  0  0  0  0  0
   -1.5655   -0.8110   -2.3889 H   0  0  0  0  0  0
   -2.4075   -1.8541   -1.3004 H   0  0  0  0  0  0
    0.9200    3.4572   -2.0121 H   0  0  0  0  0  0
    0.0166    3.7486   -0.5453 H   0  0  0  0  0  0
   -1.9139   -1.5539    1.4762 H   0  0  0  0  0  0
   -2.8146   -0.5794    2.6071 H   0  0  0  0  0  0
   -4.9141   -0.7944    1.3069 H   0  0  0  0  0  0
   -4.9258   -0.3975   -0.4069 H   0  0  0  0  0  0
   -4.1001   -1.8550    0.1629 H   0  0  0  0  0  0
   -0.0691   -3.3804   -1.8114 H   0  0  0  0  0  0
    2.8544    3.7267   -0.6133 H   0  0  0  0  0  0
    2.2381   -3.7198   -0.9468 H   0  0  0  0  0  0
    3.9201   -1.2850    1.0647 H   0  0  0  0  0  0
   -3.0774   -0.0208    0.5842 N   0  3  2  0  0  0
   -3.3981    0.8848    0.8965 H   0  0  0  0  0  0
  1  6  1  0  0  0
  1 16  1  0  0  0
  2 11  1  0  0  0
  2 39  1  0  0  0
  3 19  1  0  0  0
  3 41  1  0  0  0
  4  5  1  0  0  0
  4  6  1  0  0  0
  4  8  1  0  0  0
  4  9  1  0  0  0
  5  7  1  0  0  0
  5 10  1  0  0  0
  5 21  1  0  0  0
  6 11  1  0  0  0
  6 22  1  0  0  0
  7 12  1  0  0  0
  7 23  1  0  0  0
  7 42  1  0  0  0
  8 14  1  0  0  0
  8 24  1  0  0  0
  8 25  1  0  0  0
  9 15  2  0  0  0
  9 16  1  0  0  0
 10 13  1  0  0  0
 10 26  1  0  0  0
 10 27  1  0  0  0
 11 13  1  0  0  0
 11 28  1  0  0  0
 12 15  1  0  0  0
 12 29  1  0  0  0
 12 30  1  0  0  0
 13 31  1  0  0  0
 13 32  1  0  0  0
 14 33  1  0  0  0
 14 34  1  0  0  0
 14 42  1  0  0  0
 15 18  1  0  0  0
 16 19  2  0  0  0
 17 35  1  0  0  0
 17 36  1  0  0  0
 17 37  1  0  0  0
 17 42  1  0  0  0
 18 20  2  0  0  0
 18 38  1  0  0  0
 19 20  1  0  0  0
 20 40  1  0  0  0
 42 43  1  0  0  0
M  CHG  1  42   1
M  END
> <LID>
L000955

> <PC_CID>
273032

> <Names>
Dihydromorphine

> <CAS_Numbers>
1421-28-9;509-60-4

$$$$
44211510
                    3D
 Structure written by MMmdl.
 73 74  0  0  1  0            999 V2000
    2.6462   -2.5377    1.9778 O   0  0  0  0  0  0
   -1.2684   -0.2183    2.4221 O   0  0  0  0  0  0
    3.9064    1.9669   -3.6326 O   0  0  0  0  0  0
   -4.5723   -0.2516    2.7617 O   0  0  0  0  0  0
    2.2180   -2.2666   -0.2395 N   0  0  0  0  0  0
   -0.4179    0.3630    0.4086 N   0  0  0  0  0  0
   -3.3908    1.6114    2.1849 N   0  0  0  0  0  0
   -4.7952    1.6920    3.9031 N   0  0  0  0  0  0
    0.8590   -1.7147   -0.2231 C   0  0  0  0  0  0
    0.8586   -0.3407    0.5054 C   0  0  0  0  0  0
    0.4600   -1.5306   -1.7015 C   0  0  0  0  0  0
   -0.1138   -2.7203    0.4331 C   0  0  0  0  0  0
    4.4056   -3.1170    0.4516 C   0  0  1  0  0  0
    2.9969   -2.6166    0.8006 C   0  0  0  0  0  0
    5.4178   -1.9592    0.2656 C   0  0  0  0  0  0
   -2.6565    1.1500    0.9980 C   0  0  1  0  0  0
    5.0476   -0.8968   -0.7775 C   0  0  0  0  0  0
   -1.3778    0.3714    1.3467 C   0  0  0  0  0  0
   -3.5435    0.4467   -0.0604 C   0  0  0  0  0  0
    4.5677    0.3804   -0.3703 C   0  0  0  0  0  0
    5.1582   -1.1810   -2.1679 C   0  0  0  0  0  0
   -4.6631    1.3061   -0.6228 C   0  0  0  0  0  0
    4.1887    1.3332   -1.3382 C   0  0  0  0  0  0
    4.7705   -0.2136   -3.1183 C   0  0  0  0  0  0
    4.4407    0.7690    1.0949 C   0  0  0  0  0  0
    5.6794   -2.5120   -2.6881 C   0  0  0  0  0  0
    4.2836    1.0380   -2.7074 C   0  0  0  0  0  0
   -4.3715    2.3300   -1.5486 C   0  0  0  0  0  0
   -5.9984    1.0870   -0.2229 C   0  0  0  0  0  0
   -4.2734    0.9296    2.9340 C   0  0  0  0  0  0
   -5.4071    3.1314   -2.0676 C   0  0  0  0  0  0
   -7.0336    1.8890   -0.7414 C   0  0  0  0  0  0
   -6.7382    2.9114   -1.6637 C   0  0  0  0  0  0
   -5.7806    1.2218    4.8649 C   0  0  0  0  0  0
    1.1474   -0.4477    1.5518 H   0  0  0  0  0  0
    1.6105    0.3091    0.0573 H   0  0  0  0  0  0
    2.6270   -2.3622   -1.1580 H   0  0  0  0  0  0
   -0.5635   -1.1690   -1.8047 H   0  0  0  0  0  0
    1.1134   -0.8153   -2.2034 H   0  0  0  0  0  0
    0.5221   -2.4717   -2.2496 H   0  0  0  0  0  0
   -1.1513   -2.4061    0.3162 H   0  0  0  0  0  0
   -0.0257   -3.7097   -0.0168 H   0  0  0  0  0  0
    0.0686   -2.8253    1.5026 H   0  0  0  0  0  0
    4.3344   -3.6910   -0.4712 H   0  0  0  0  0  0
    6.3902   -2.3716   -0.0011 H   0  0  0  0  0  0
    5.6011   -1.4932    1.2324 H   0  0  0  0  0  0
   -0.5898    0.8719   -0.4462 H   0  0  0  0  0  0
   -2.3027    2.0738    0.5379 H   0  0  0  0  0  0
   -2.9240    0.1431   -0.9055 H   0  0  0  0  0  0
   -3.9555   -0.4849    0.3271 H   0  0  0  0  0  0
    4.2450   -4.8274    1.5589 H   0  0  0  0  0  0
    5.8069   -4.3999    1.2323 H   0  0  0  0  0  0
   -3.2224    2.5712    2.4457 H   0  0  0  0  0  0
    3.8190    2.3012   -1.0320 H   0  0  0  0  0  0
    4.8463   -0.4334   -4.1734 H   0  0  0  0  0  0
    3.8276    0.0535    1.6413 H   0  0  0  0  0  0
    5.4241    0.8174    1.5628 H   0  0  0  0  0  0
    3.9738    1.7479    1.2076 H   0  0  0  0  0  0
    5.9602   -2.4343   -3.7390 H   0  0  0  0  0  0
    6.5668   -2.8415   -2.1496 H   0  0  0  0  0  0
    4.9118   -3.2812   -2.6140 H   0  0  0  0  0  0
   -3.3525    2.5047   -1.8617 H   0  0  0  0  0  0
   -6.2327    0.3060    0.4860 H   0  0  0  0  0  0
   -5.1803    3.9151   -2.7753 H   0  0  0  0  0  0
   -8.0541    1.7197   -0.4311 H   0  0  0  0  0  0
   -7.5322    3.5262   -2.0614 H   0  0  0  0  0  0
   -4.4981    2.6532    3.9812 H   0  0  0  0  0  0
    4.0227    1.6753   -4.5238 H   0  0  0  0  0  0
   -6.0483    2.0271    5.5489 H   0  0  0  0  0  0
   -6.6875    0.8879    4.3589 H   0  0  0  0  0  0
   -5.3845    0.3923    5.4522 H   0  0  0  0  0  0
    4.8912   -4.0549    1.4813 N   0  3  0  0  0  0
    4.9350   -3.5739    2.3687 H   0  0  0  0  0  0
  1 14  2  0  0  0
  2 18  2  0  0  0
  3 27  1  0  0  0
  3 68  1  0  0  0
  4 30  2  0  0  0
  5  9  1  0  0  0
  5 14  1  0  0  0
  5 37  1  0  0  0
  6 10  1  0  0  0
  6 18  1  0  0  0
  6 47  1  0  0  0
  7 16  1  0  0  0
  7 30  1  0  0  0
  7 53  1  0  0  0
  8 30  1  0  0  0
  8 34  1  0  0  0
  8 67  1  0  0  0
  9 10  1  0  0  0
  9 11  1  0  0  0
  9 12  1  0  0  0
 10 35  1  0  0  0
 10 36  1  0  0  0
 11 38  1  0  0  0
 11 39  1  0  0  0
 11 40  1  0  0  0
 12 41  1  0  0  0
 12 42  1  0  0  0
 12 43  1  0  0  0
 13 14  1  0  0  0
 13 15  1  0  0  0
 13 44  1  0  0  0
 13 72  1  0  0  0
 15 17  1  0  0  0
 15 45  1  0  0  0
 15 46  1  0  0  0
 16 18  1  0  0  0
 16 19  1  0  0  0
 16 48  1  0  0  0
 17 20  2  0  0  0
 17 21  1  0  0  0
 19 22  1  0  0  0
 19 49  1  0  0  0
 19 50  1  0  0  0
 20 23  1  0  0  0
 20 25  1  0  0  0
 21 24  2  0  0  0
 21 26  1  0  0  0
 22 28  2  0  0  0
 22 29  1  0  0  0
 23 27  2  0  0  0
 23 54  1  0  0  0
 24 27  1  0  0  0
 24 55  1  0  0  0
 25 56  1  0  0  0
 25 57  1  0  0  0
 25 58  1  0  0  0
 26 59  1  0  0  0
 26 60  1  0  0  0
 26 61  1  0  0  0
 28 31  1  0  0  0
 28 62  1  0  0  0
 29 32  2  0  0  0
 29 63  1  0  0  0
 31 33  2  0  0  0
 31 64  1  0  0  0
 32 33  1  0  0  0
 32 65  1  0  0  0
 33 66  1  0  0  0
 34 69  1  0  0  0
 34 70  1  0  0  0
 34 71  1  0  0  0
 51 72  1  0  0  0
 52 72  1  0  0  0
 72 73  1  0  0  0
M  CHG  1  72   1
M  END
> <LID>
L010057

> <PC_CID>
44211510

> <Names>


> <CAS_Numbers>


$$$$
44211511
                    3D
 Structure written by MMmdl.
 71 72  0  0  1  0            999 V2000
    0.5524   -1.4882   -0.8343 O   0  0  0  0  0  0
   -2.5526    3.6726    0.0281 O   0  0  0  0  0  0
   -4.0528   -3.4152    0.6368 O   0  0  0  0  0  0
    3.2139   -2.6809   -2.1091 O   0  0  0  0  0  0
    3.0832   -2.3254    0.1345 N   0  0  0  0  0  0
    0.5911    0.3564    0.4678 N   0  0  0  0  0  0
   -2.4431    1.7877   -1.2224 N   0  0  0  0  0  0
    2.6660   -0.9182    0.1943 C   0  0  1  0  0  0
    3.5984    0.0630   -0.5725 C   0  0  0  0  0  0
    4.8652    0.4891    0.1804 C   0  0  0  0  0  0
   -5.4454    2.1201    0.0681 C   0  0  0  0  0  0
   -4.6040    2.9106   -0.9644 C   0  0  2  0  0  0
   -5.0981    0.6348    0.2336 C   0  0  0  0  0  0
    1.1685   -0.7131   -0.1022 C   0  0  0  0  0  0
    6.1375   -0.0648   -0.1415 C   0  0  0  0  0  0
    4.7833    1.4671    1.2133 C   0  0  0  0  0  0
   -4.3778    0.1828    1.3758 C   0  0  0  0  0  0
   -5.4789   -0.3106   -0.7600 C   0  0  0  0  0  0
   -0.8051    0.7388    0.3020 C   0  0  0  0  0  0
   -1.0312    1.4888   -1.0227 C   0  0  0  0  0  0
   -3.0979    2.8265   -0.6810 C   0  0  0  0  0  0
    7.2833    0.3341    0.5784 C   0  0  0  0  0  0
    5.9432    1.8502    1.9184 C   0  0  0  0  0  0
   -4.0346   -1.1793    1.5002 C   0  0  0  0  0  0
   -5.1205   -1.6673   -0.6169 C   0  0  0  0  0  0
    6.3287   -1.0851   -1.2517 C   0  0  0  0  0  0
    3.4719    2.1385    1.5947 C   0  0  0  0  0  0
    7.1887    1.2842    1.6068 C   0  0  0  0  0  0
   -4.3983   -2.1018    0.5066 C   0  0  0  0  0  0
   -3.9542    1.1246    2.4923 C   0  0  0  0  0  0
   -6.2667    0.0838   -2.0002 C   0  0  0  0  0  0
    3.3339   -3.0777   -0.9511 C   0  0  0  0  0  0
    3.7864   -4.5079   -0.6815 C   0  0  0  0  0  0
    2.7609   -0.6832    1.2541 H   0  0  0  0  0  0
    3.8384   -0.3179   -1.5606 H   0  0  0  0  0  0
    3.0508    0.9749   -0.8077 H   0  0  0  0  0  0
   -6.4997    2.1937   -0.1963 H   0  0  0  0  0  0
   -5.3934    2.6301    1.0287 H   0  0  0  0  0  0
   -4.7791    2.5097   -1.9618 H   0  0  0  0  0  0
   -1.0849    1.3709    1.1450 H   0  0  0  0  0  0
   -1.4406   -0.1471    0.3540 H   0  0  0  0  0  0
   -0.7017    0.8767   -1.8629 H   0  0  0  0  0  0
   -0.4382    2.4045   -1.0537 H   0  0  0  0  0  0
    3.2078   -2.7762    1.0289 H   0  0  0  0  0  0
    1.1602    0.9483    1.0551 H   0  0  0  0  0  0
   -2.9689    1.1293   -1.7797 H   0  0  0  0  0  0
    8.2494   -0.0876    0.3422 H   0  0  0  0  0  0
    5.8844    2.5875    2.7058 H   0  0  0  0  0  0
   -3.4843   -1.5244    2.3636 H   0  0  0  0  0  0
   -5.4022   -2.3826   -1.3760 H   0  0  0  0  0  0
    7.3870   -1.2624   -1.4448 H   0  0  0  0  0  0
    5.8895   -2.0396   -0.9714 H   0  0  0  0  0  0
    5.8889   -0.7467   -2.1893 H   0  0  0  0  0  0
    2.9819    2.5771    0.7260 H   0  0  0  0  0  0
    2.7931    1.4296    2.0658 H   0  0  0  0  0  0
    3.6380    2.9472    2.3070 H   0  0  0  0  0  0
   -4.5182    4.8106   -1.7133 H   0  0  0  0  0  0
   -6.0290    4.3680   -1.2134 H   0  0  0  0  0  0
    8.0721    1.5837    2.1513 H   0  0  0  0  0  0
   -3.3769    1.9627    2.1046 H   0  0  0  0  0  0
   -4.8287    1.5135    3.0142 H   0  0  0  0  0  0
   -3.3311    0.6148    3.2277 H   0  0  0  0  0  0
   -6.7049   -0.7939   -2.4764 H   0  0  0  0  0  0
   -7.0897    0.7569   -1.7643 H   0  0  0  0  0  0
   -5.6166    0.5595   -2.7334 H   0  0  0  0  0  0
    4.7082   -4.5122   -0.0991 H   0  0  0  0  0  0
    3.0215   -5.0513   -0.1262 H   0  0  0  0  0  0
    3.9711   -5.0382   -1.6163 H   0  0  0  0  0  0
   -4.3419   -3.9509   -0.0858 H   0  0  0  0  0  0
   -5.0424    4.3183   -1.0041 N   0  3  0  0  0  0
   -4.8604    4.7441   -0.1061 H   0  0  0  0  0  0
  1 14  2  0  0  0
  2 21  2  0  0  0
  3 29  1  0  0  0
  3 69  1  0  0  0
  4 32  2  0  0  0
  5  8  1  0  0  0
  5 32  1  0  0  0
  5 44  1  0  0  0
  6 14  1  0  0  0
  6 19  1  0  0  0
  6 45  1  0  0  0
  7 20  1  0  0  0
  7 21  1  0  0  0
  7 46  1  0  0  0
  8  9  1  0  0  0
  8 14  1  0  0  0
  8 34  1  0  0  0
  9 10  1  0  0  0
  9 35  1  0  0  0
  9 36  1  0  0  0
 10 15  2  0  0  0
 10 16  1  0  0  0
 11 12  1  0  0  0
 11 13  1  0  0  0
 11 37  1  0  0  0
 11 38  1  0  0  0
 12 21  1  0  0  0
 12 39  1  0  0  0
 12 70  1  0  0  0
 13 17  2  0  0  0
 13 18  1  0  0  0
 15 22  1  0  0  0
 15 26  1  0  0  0
 16 23  2  0  0  0
 16 27  1  0  0  0
 17 24  1  0  0  0
 17 30  1  0  0  0
 18 25  2  0  0  0
 18 31  1  0  0  0
 19 20  1  0  0  0
 19 40  1  0  0  0
 19 41  1  0  0  0
 20 42  1  0  0  0
 20 43  1  0  0  0
 22 28  2  0  0  0
 22 47  1  0  0  0
 23 28  1  0  0  0
 23 48  1  0  0  0
 24 29  2  0  0  0
 24 49  1  0  0  0
 25 29  1  0  0  0
 25 50  1  0  0  0
 26 51  1  0  0  0
 26 52  1  0  0  0
 26 53  1  0  0  0
 27 54  1  0  0  0
 27 55  1  0  0  0
 27 56  1  0  0  0
 28 59  1  0  0  0
 30 60  1  0  0  0
 30 61  1  0  0  0
 30 62  1  0  0  0
 31 63  1  0  0  0
 31 64  1  0  0  0
 31 65  1  0  0  0
 32 33  1  0  0  0
 33 66  1  0  0  0
 33 67  1  0  0  0
 33 68  1  0  0  0
 57 70  1  0  0  0
 58 70  1  0  0  0
 70 71  1  0  0  0
M  CHG  1  70   1
M  END
> <LID>
L010058

> <PC_CID>
44211511

> <Names>


> <CAS_Numbers>


$$$$
9822700
                    3D
 Structure written by MMmdl.
 58 61  0  0  1  0            999 V2000
    4.2578   -3.8404   -1.7732 O   0  0  0  0  0  0
   -0.5721    1.1290    0.1863 C   0  0  2  0  0  0
   -0.4316    2.6398   -0.0775 C   0  0  0  0  0  0
    0.1937    0.2846   -0.8521 C   0  0  0  0  0  0
    0.9957    3.1817    0.0982 C   0  0  0  0  0  0
    2.0188    2.6077   -0.8982 C   0  0  0  0  0  0
    1.6718    0.1352   -0.5236 C   0  0  0  0  0  0
    2.5080    1.2031   -0.5450 C   0  0  0  0  0  0
   -2.0370    0.7159    0.2591 C   0  0  0  0  0  0
    4.0118    1.0917   -0.2704 C   0  0  0  0  0  0
    2.1642   -1.2238   -0.2408 C   0  0  0  0  0  0
   -2.8659    0.8177   -0.8799 C   0  0  0  0  0  0
   -2.5765    0.2262    1.4683 C   0  0  0  0  0  0
   -4.2210    0.4345   -0.8128 C   0  0  0  0  0  0
   -3.9293   -0.1580    1.5411 C   0  0  0  0  0  0
   -4.7559   -0.0560    0.4041 C   0  0  0  0  0  0
    2.9878   -1.8975   -1.1673 C   0  0  0  0  0  0
    1.7793   -1.8625    0.9562 C   0  0  0  0  0  0
    5.7304    0.1788    1.2315 C   0  0  0  0  0  0
    3.8919    1.5000    2.1761 C   0  0  0  0  0  0
   -5.0469    0.5369   -1.9515 C   0  0  0  0  0  0
    3.4502   -3.1970   -0.8818 C   0  0  0  0  0  0
    2.2408   -3.1628    1.2382 C   0  0  0  0  0  0
   -6.1115   -0.4394    0.4714 C   0  0  0  0  0  0
    3.0786   -3.8286    0.3221 C   0  0  0  0  0  0
   -6.4000    0.1526   -1.8787 C   0  0  0  0  0  0
   -6.9316   -0.3349   -0.6690 C   0  0  0  0  0  0
   -0.1446    0.9214    1.1687 H   0  0  0  0  0  0
   -1.0784    3.1768    0.6178 H   0  0  0  0  0  0
   -0.7984    2.8853   -1.0750 H   0  0  0  0  0  0
    0.0625    0.6750   -1.8620 H   0  0  0  0  0  0
   -0.2304   -0.7208   -0.8771 H   0  0  0  0  0  0
    1.3329    3.0323    1.1231 H   0  0  0  0  0  0
    0.9571    4.2626   -0.0412 H   0  0  0  0  0  0
    2.8630    3.2947   -0.9497 H   0  0  0  0  0  0
    1.6010    2.5985   -1.9056 H   0  0  0  0  0  0
    4.4443    0.4275   -1.0187 H   0  0  0  0  0  0
    4.5182    2.0475   -0.4073 H   0  0  0  0  0  0
   -2.4590    1.1907   -1.8086 H   0  0  0  0  0  0
   -1.9560    0.1420    2.3484 H   0  0  0  0  0  0
   -4.3281   -0.5309    2.4734 H   0  0  0  0  0  0
    3.2678   -1.4195   -2.0950 H   0  0  0  0  0  0
    1.1348   -1.3572    1.6611 H   0  0  0  0  0  0
    5.9120   -0.2639    2.2115 H   0  0  0  0  0  0
    5.9939   -0.5672    0.4807 H   0  0  0  0  0  0
    6.3962    1.0348    1.1134 H   0  0  0  0  0  0
    4.1559    1.0911    3.1520 H   0  0  0  0  0  0
    4.3683    2.4760    2.0751 H   0  0  0  0  0  0
    2.8119    1.6385    2.1700 H   0  0  0  0  0  0
   -4.6477    0.9098   -2.8836 H   0  0  0  0  0  0
    1.9506   -3.6510    2.1570 H   0  0  0  0  0  0
   -6.5277   -0.8144    1.3951 H   0  0  0  0  0  0
    3.4291   -4.8258    0.5452 H   0  0  0  0  0  0
   -7.0308    0.2319   -2.7519 H   0  0  0  0  0  0
   -7.9695   -0.6289   -0.6157 H   0  0  0  0  0  0
    4.4960   -4.7133   -1.5003 H   0  0  0  0  0  0
    4.3146    0.5839    1.0928 N   0  3  0  0  0  0
    3.7728   -0.2620    1.2045 H   0  0  0  0  0  0
  1 22  1  0  0  0
  1 56  1  0  0  0
  2  3  1  0  0  0
  2  4  1  0  0  0
  2  9  1  0  0  0
  2 28  1  0  0  0
  3  5  1  0  0  0
  3 29  1  0  0  0
  3 30  1  0  0  0
  4  7  1  0  0  0
  4 31  1  0  0  0
  4 32  1  0  0  0
  5  6  1  0  0  0
  5 33  1  0  0  0
  5 34  1  0  0  0
  6  8  1  0  0  0
  6 35  1  0  0  0
  6 36  1  0  0  0
  7  8  2  0  0  0
  7 11  1  0  0  0
  8 10  1  0  0  0
  9 12  2  0  0  0
  9 13  1  0  0  0
 10 37  1  0  0  0
 10 38  1  0  0  0
 10 57  1  0  0  0
 11 17  2  0  0  0
 11 18  1  0  0  0
 12 14  1  0  0  0
 12 39  1  0  0  0
 13 15  2  0  0  0
 13 40  1  0  0  0
 14 16  1  0  0  0
 14 21  2  0  0  0
 15 16  1  0  0  0
 15 41  1  0  0  0
 16 24  2  0  0  0
 17 22  1  0  0  0
 17 42  1  0  0  0
 18 23  2  0  0  0
 18 43  1  0  0  0
 19 44  1  0  0  0
 19 45  1  0  0  0
 19 46  1  0  0  0
 19 57  1  0  0  0
 20 47  1  0  0  0
 20 48  1  0  0  0
 20 49  1  0  0  0
 20 57  1  0  0  0
 21 26  1  0  0  0
 21 50  1  0  0  0
 22 25  2  0  0  0
 23 25  1  0  0  0
 23 51  1  0  0  0
 24 27  1  0  0  0
 24 52  1  0  0  0
 25 53  1  0  0  0
 26 27  2  0  0  0
 26 54  1  0  0  0
 27 55  1  0  0  0
 57 58  1  0  0  0
M  CHG  1  57   1
M  END
> <LID>
L019790

> <PC_CID>
9822700

> <Names>


> <CAS_Numbers>


$$$$
10185486
                    3D
 Structure written by MMmdl.
 73 76  0  0  1  0            999 V2000
    0.3489   -2.0198    4.4494 F   0  0  0  0  0  0
    4.4294    1.8076   -1.1659 O   0  0  0  0  0  0
    0.3579   -6.2651   -0.3425 O   0  0  0  0  0  0
   -0.1132   -1.5730    1.7333 N   0  0  0  0  0  0
    2.6644    3.1878   -1.5856 N   0  0  0  0  0  0
    1.9707   -7.1381    0.9570 N   0  0  0  0  0  0
   -1.5137   -1.2036    1.9965 C   0  0  0  0  0  0
   -2.4837   -1.7529    0.9247 C   0  0  0  0  0  0
   -1.7433    0.3001    2.2933 C   0  0  0  0  0  0
   -3.5387   -0.7224    0.4961 C   0  0  0  0  0  0
   -2.0161    1.1752    1.0478 C   0  0  0  0  0  0
   -3.7928    1.4349   -0.6835 C   0  0  0  0  0  0
    0.6943   -0.7378    1.0438 C   0  0  0  0  0  0
    0.2833   -2.7870    2.1728 C   0  0  0  0  0  0
   -3.0485    2.4637   -1.5162 C   0  0  0  0  0  0
    0.5669   -0.5847   -0.3545 C   0  0  0  0  0  0
    1.6760    0.0034    1.7348 C   0  0  0  0  0  0
    0.4598   -3.8413    1.2514 C   0  0  0  0  0  0
    0.5107   -3.0191    3.5480 C   0  0  0  0  0  0
   -2.9383    3.7986   -1.0719 C   0  0  0  0  0  0
   -2.4773    2.0898   -2.7513 C   0  0  0  0  0  0
    1.3887    0.3256   -1.0458 C   0  0  0  0  0  0
    2.5032    0.9073    1.0427 C   0  0  0  0  0  0
    0.8696   -5.1210    1.6865 C   0  0  0  0  0  0
    2.3459    1.0922   -0.3463 C   0  0  0  0  0  0
    0.9084   -4.2946    3.9903 C   0  0  0  0  0  0
    1.0834   -5.3427    3.0666 C   0  0  0  0  0  0
   -2.2709    4.7542   -1.8626 C   0  0  0  0  0  0
   -1.8076    3.0455   -3.5398 C   0  0  0  0  0  0
    3.2289    2.0645   -1.0712 C   0  0  0  0  0  0
   -1.7092    4.3788   -3.0981 C   0  0  0  0  0  0
    1.0267   -6.2324    0.6884 C   0  0  0  0  0  0
    3.4693    4.1469   -2.3553 C   0  0  0  0  0  0
    1.2649    3.5956   -1.3810 C   0  0  0  0  0  0
    3.4968    3.7808   -3.8458 C   0  0  0  0  0  0
    1.0480    4.2400   -0.0038 C   0  0  0  0  0  0
   -1.7843   -1.7030    2.9284 H   0  0  0  0  0  0
   -2.9756   -2.6492    1.3041 H   0  0  0  0  0  0
   -1.9390   -2.0804    0.0399 H   0  0  0  0  0  0
   -0.9289    0.7157    2.8878 H   0  0  0  0  0  0
   -2.6203    0.3733    2.9380 H   0  0  0  0  0  0
   -4.2198   -0.4887    1.3160 H   0  0  0  0  0  0
   -4.1451   -1.1512   -0.3028 H   0  0  0  0  0  0
   -1.0806    1.4732    0.5749 H   0  0  0  0  0  0
   -2.4831    2.1015    1.3850 H   0  0  0  0  0  0
   -4.4387    0.8712   -1.3582 H   0  0  0  0  0  0
   -4.4515    1.9248    0.0355 H   0  0  0  0  0  0
   -0.1603   -1.1582   -0.9077 H   0  0  0  0  0  0
    1.7908   -0.1125    2.8030 H   0  0  0  0  0  0
    0.2796   -3.6627    0.2006 H   0  0  0  0  0  0
   -3.3710    4.0974   -0.1283 H   0  0  0  0  0  0
   -2.5561    1.0710   -3.1017 H   0  0  0  0  0  0
    1.2782    0.4371   -2.1150 H   0  0  0  0  0  0
    3.2472    1.4719    1.5862 H   0  0  0  0  0  0
    1.0761   -4.4701    5.0427 H   0  0  0  0  0  0
    1.3764   -6.3163    3.4320 H   0  0  0  0  0  0
   -2.1907    5.7760   -1.5220 H   0  0  0  0  0  0
   -1.3731    2.7571   -4.4858 H   0  0  0  0  0  0
   -1.1974    5.1122   -3.7039 H   0  0  0  0  0  0
    3.0704    5.1552   -2.2350 H   0  0  0  0  0  0
    4.4886    4.2018   -1.9694 H   0  0  0  0  0  0
    0.9786    4.3121   -2.1514 H   0  0  0  0  0  0
    0.5769    2.7633   -1.5177 H   0  0  0  0  0  0
    2.1332   -7.8939    0.3078 H   0  0  0  0  0  0
    2.5223   -7.0594    1.7984 H   0  0  0  0  0  0
    4.0822    4.5058   -4.4115 H   0  0  0  0  0  0
    3.9435    2.7989   -4.0045 H   0  0  0  0  0  0
    2.4913    3.7644   -4.2674 H   0  0  0  0  0  0
    0.0163    4.5734    0.1077 H   0  0  0  0  0  0
    1.2545    3.5412    0.8064 H   0  0  0  0  0  0
    1.6929    5.1088    0.1303 H   0  0  0  0  0  0
   -2.8681    0.5111    0.0174 N   0  3  0  0  0  0
   -2.2257    0.1883   -0.6919 H   0  0  0  0  0  0
  1 19  1  0  0  0
  2 30  2  0  0  0
  3 32  2  0  0  0
  4  7  1  0  0  0
  4 13  1  0  0  0
  4 14  1  0  0  0
  5 30  1  0  0  0
  5 33  1  0  0  0
  5 34  1  0  0  0
  6 32  1  0  0  0
  6 64  1  0  0  0
  6 65  1  0  0  0
  7  8  1  0  0  0
  7  9  1  0  0  0
  7 37  1  0  0  0
  8 10  1  0  0  0
  8 38  1  0  0  0
  8 39  1  0  0  0
  9 11  1  0  0  0
  9 40  1  0  0  0
  9 41  1  0  0  0
 10 42  1  0  0  0
 10 43  1  0  0  0
 10 72  1  0  0  0
 11 44  1  0  0  0
 11 45  1  0  0  0
 11 72  1  0  0  0
 12 15  1  0  0  0
 12 46  1  0  0  0
 12 47  1  0  0  0
 12 72  1  0  0  0
 13 16  2  0  0  0
 13 17  1  0  0  0
 14 18  1  0  0  0
 14 19  2  0  0  0
 15 20  2  0  0  0
 15 21  1  0  0  0
 16 22  1  0  0  0
 16 48  1  0  0  0
 17 23  2  0  0  0
 17 49  1  0  0  0
 18 24  2  0  0  0
 18 50  1  0  0  0
 19 26  1  0  0  0
 20 28  1  0  0  0
 20 51  1  0  0  0
 21 29  2  0  0  0
 21 52  1  0  0  0
 22 25  2  0  0  0
 22 53  1  0  0  0
 23 25  1  0  0  0
 23 54  1  0  0  0
 24 27  1  0  0  0
 24 32  1  0  0  0
 25 30  1  0  0  0
 26 27  2  0  0  0
 26 55  1  0  0  0
 27 56  1  0  0  0
 28 31  2  0  0  0
 28 57  1  0  0  0
 29 31  1  0  0  0
 29 58  1  0  0  0
 31 59  1  0  0  0
 33 35  1  0  0  0
 33 60  1  0  0  0
 33 61  1  0  0  0
 34 36  1  0  0  0
 34 62  1  0  0  0
 34 63  1  0  0  0
 35 66  1  0  0  0
 35 67  1  0  0  0
 35 68  1  0  0  0
 36 69  1  0  0  0
 36 70  1  0  0  0
 36 71  1  0  0  0
 72 73  1  0  0  0
M  CHG  1  72   1
M  END
> <LID>
L021985

> <PC_CID>
10185486

> <Names>


> <CAS_Numbers>


$$$$
10207832
                    3D
 Structure written by MMmdl.
 79 82  0  0  1  0            999 V2000
   -4.5464    6.4894    4.8248 O   0  0  0  0  0  0
    2.7506    1.6524   -0.0316 O   0  0  0  0  0  0
   -2.1463    1.5979    1.6218 N   0  0  0  0  0  0
   -4.8436    4.9468    6.4968 N   0  0  0  0  0  0
    3.8063    0.8550    1.7859 N   0  0  0  0  0  0
   -2.8939    1.2934    0.3906 C   0  0  0  0  0  0
   -2.1085    1.6254   -0.8940 C   0  0  0  0  0  0
   -3.3932   -0.1650    0.3283 C   0  0  0  0  0  0
   -2.9620    1.3479   -2.1421 C   0  0  0  0  0  0
   -4.2157   -0.4065   -0.9481 C   0  0  0  0  0  0
   -4.0625   -0.4779   -3.4369 C   0  0  0  0  0  0
   -2.6965    2.4790    2.4894 C   0  0  0  0  0  0
   -1.0143    0.9087    1.8916 C   0  0  0  0  0  0
   -5.3678    0.2419   -3.7473 C   0  0  0  0  0  0
   -1.9526    3.5984    2.9234 C   0  0  0  0  0  0
   -4.0139    2.3020    2.9702 C   0  0  0  0  0  0
    0.2260    1.3310    1.3661 C   0  0  0  0  0  0
   -1.0645   -0.2370    2.7134 C   0  0  0  0  0  0
   -3.8195    4.3327    4.3197 C   0  0  0  0  0  0
   -5.3590    1.4415   -4.4915 C   0  0  0  0  0  0
   -6.5981   -0.2970   -3.3127 C   0  0  0  0  0  0
   -2.5123    4.5231    3.8258 C   0  0  0  0  0  0
   -4.5745    3.2259    3.8727 C   0  0  0  0  0  0
    1.4114    0.6170    1.6476 C   0  0  0  0  0  0
    0.1096   -0.9610    2.9917 C   0  0  0  0  0  0
   -5.7455    5.8672    7.2553 C   0  0  0  0  0  0
   -4.3912    3.6630    7.1176 C   0  0  0  0  0  0
   -4.4213    5.3421    5.2561 C   0  0  0  0  0  0
    1.3424   -0.5406    2.4570 C   0  0  0  0  0  0
   -6.5670    2.1042   -4.7834 C   0  0  0  0  0  0
   -7.8058    0.3659   -3.6049 C   0  0  0  0  0  0
   -7.7905    1.5675   -4.3388 C   0  0  0  0  0  0
   -7.2304    5.5184    7.0432 C   0  0  0  0  0  0
   -5.3918    6.0831    8.7377 C   0  0  0  0  0  0
   -3.2172    3.8486    8.0975 C   0  0  0  0  0  0
   -5.5271    2.7924    7.6834 C   0  0  0  0  0  0
    2.7127    1.0691    1.0498 C   0  0  0  0  0  0
   -3.7784    1.9326    0.3734 H   0  0  0  0  0  0
   -1.7992    2.6712   -0.8842 H   0  0  0  0  0  0
   -1.1974    1.0292   -0.9528 H   0  0  0  0  0  0
   -4.0005   -0.3946    1.2042 H   0  0  0  0  0  0
   -2.5503   -0.8571    0.3450 H   0  0  0  0  0  0
   -2.3744    1.5533   -3.0377 H   0  0  0  0  0  0
   -3.8189    2.0227   -2.1601 H   0  0  0  0  0  0
   -5.1275    0.1916   -0.9163 H   0  0  0  0  0  0
   -4.5211   -1.4526   -0.9918 H   0  0  0  0  0  0
   -3.3600   -0.3140   -4.2552 H   0  0  0  0  0  0
   -4.2438   -1.5534   -3.4128 H   0  0  0  0  0  0
   -0.9476    3.7581    2.5608 H   0  0  0  0  0  0
   -4.6033    1.4546    2.6529 H   0  0  0  0  0  0
    0.2651    2.2140    0.7439 H   0  0  0  0  0  0
   -2.0062   -0.5669    3.1278 H   0  0  0  0  0  0
   -1.9310    5.3777    4.1411 H   0  0  0  0  0  0
   -5.5851    3.0787    4.2259 H   0  0  0  0  0  0
   -4.4258    1.8599   -4.8392 H   0  0  0  0  0  0
   -6.6205   -1.2197   -2.7513 H   0  0  0  0  0  0
    0.0640   -1.8428    3.6136 H   0  0  0  0  0  0
   -5.6474    6.8772    6.8566 H   0  0  0  0  0  0
   -3.9594    3.0130    6.3630 H   0  0  0  0  0  0
    2.2291   -1.1190    2.6724 H   0  0  0  0  0  0
   -6.5555    3.0237   -5.3501 H   0  0  0  0  0  0
   -8.7447   -0.0481   -3.2675 H   0  0  0  0  0  0
   -8.7170    2.0754   -4.5635 H   0  0  0  0  0  0
   -7.8701    6.3101    7.4342 H   0  0  0  0  0  0
   -7.4624    5.4092    5.9834 H   0  0  0  0  0  0
   -7.5229    4.5987    7.5456 H   0  0  0  0  0  0
   -5.5623    5.2024    9.3524 H   0  0  0  0  0  0
   -4.3536    6.3948    8.8534 H   0  0  0  0  0  0
   -6.0068    6.8781    9.1605 H   0  0  0  0  0  0
   -2.7338    2.8916    8.2962 H   0  0  0  0  0  0
   -2.4582    4.5133    7.6838 H   0  0  0  0  0  0
   -3.5230    4.2430    9.0637 H   0  0  0  0  0  0
   -5.1484    1.8100    7.9667 H   0  0  0  0  0  0
   -5.9891    3.2163    8.5719 H   0  0  0  0  0  0
   -6.3053    2.6312    6.9370 H   0  0  0  0  0  0
    4.7049    1.1594    1.4412 H   0  0  0  0  0  0
    3.7297    0.4014    2.6841 H   0  0  0  0  0  0
   -3.4247   -0.0641   -2.1587 N   0  3  0  0  0  0
   -2.5845   -0.6215   -2.0962 H   0  0  0  0  0  0
  1 28  2  0  0  0
  2 37  2  0  0  0
  3  6  1  0  0  0
  3 12  1  0  0  0
  3 13  1  0  0  0
  4 26  1  0  0  0
  4 27  1  0  0  0
  4 28  1  0  0  0
  5 37  1  0  0  0
  5 76  1  0  0  0
  5 77  1  0  0  0
  6  7  1  0  0  0
  6  8  1  0  0  0
  6 38  1  0  0  0
  7  9  1  0  0  0
  7 39  1  0  0  0
  7 40  1  0  0  0
  8 10  1  0  0  0
  8 41  1  0  0  0
  8 42  1  0  0  0
  9 43  1  0  0  0
  9 44  1  0  0  0
  9 78  1  0  0  0
 10 45  1  0  0  0
 10 46  1  0  0  0
 10 78  1  0  0  0
 11 14  1  0  0  0
 11 47  1  0  0  0
 11 48  1  0  0  0
 11 78  1  0  0  0
 12 15  2  0  0  0
 12 16  1  0  0  0
 13 17  1  0  0  0
 13 18  2  0  0  0
 14 20  2  0  0  0
 14 21  1  0  0  0
 15 22  1  0  0  0
 15 49  1  0  0  0
 16 23  2  0  0  0
 16 50  1  0  0  0
 17 24  2  0  0  0
 17 51  1  0  0  0
 18 25  1  0  0  0
 18 52  1  0  0  0
 19 22  2  0  0  0
 19 23  1  0  0  0
 19 28  1  0  0  0
 20 30  1  0  0  0
 20 55  1  0  0  0
 21 31  2  0  0  0
 21 56  1  0  0  0
 22 53  1  0  0  0
 23 54  1  0  0  0
 24 29  1  0  0  0
 24 37  1  0  0  0
 25 29  2  0  0  0
 25 57  1  0  0  0
 26 33  1  0  0  0
 26 34  1  0  0  0
 26 58  1  0  0  0
 27 35  1  0  0  0
 27 36  1  0  0  0
 27 59  1  0  0  0
 29 60  1  0  0  0
 30 32  2  0  0  0
 30 61  1  0  0  0
 31 32  1  0  0  0
 31 62  1  0  0  0
 32 63  1  0  0  0
 33 64  1  0  0  0
 33 65  1  0  0  0
 33 66  1  0  0  0
 34 67  1  0  0  0
 34 68  1  0  0  0
 34 69  1  0  0  0
 35 70  1  0  0  0
 35 71  1  0  0  0
 35 72  1  0  0  0
 36 73  1  0  0  0
 36 74  1  0  0  0
 36 75  1  0  0  0
 78 79  1  0  0  0
M  CHG  1  78   1
M  END
> <LID>
L021986

> <PC_CID>
10207832

> <Names>


> <CAS_Numbers>


$$$$
18343449
                    3D
 Structure written by MMmdl.
 36 37  0  0  1  0            999 V2000
   -3.5967    1.3543   -0.2062 S   0  0  0  0  0  0
    4.4941   -0.3046    0.1065 O   0  0  0  0  0  0
   -0.3606   -1.3123    0.1588 C   0  0  0  0  0  0
   -1.6949   -0.6925   -0.3560 C   0  0  1  0  0  0
   -1.9761    0.6834    0.2809 C   0  0  1  0  0  0
    0.7950   -0.2993    0.0741 C   0  0  0  0  0  0
   -0.8545    1.6858   -0.0320 C   0  0  0  0  0  0
    0.5508    1.1007    0.0035 C   0  0  0  0  0  0
   -0.5156   -1.7419    1.6355 C   0  0  0  0  0  0
   -0.0612   -2.6024   -0.6499 C   0  0  0  0  0  0
    2.1371   -0.7503    0.1187 C   0  0  0  0  0  0
    1.6339    2.0032   -0.0506 C   0  0  0  0  0  0
    3.2110    0.1574    0.0667 C   0  0  0  0  0  0
    2.9597    1.5372   -0.0221 C   0  0  0  0  0  0
   -4.7004    0.3931    0.8651 C   0  0  0  0  0  0
   -2.5104   -1.3740   -0.1128 H   0  0  0  0  0  0
   -2.0142    0.5691    1.3632 H   0  0  0  0  0  0
   -0.9126    2.5265    0.6608 H   0  0  0  0  0  0
   -1.0010    2.1039   -1.0288 H   0  0  0  0  0  0
    0.3766   -2.2575    1.9930 H   0  0  0  0  0  0
   -0.6688   -0.8942    2.3024 H   0  0  0  0  0  0
   -1.3564   -2.4236    1.7684 H   0  0  0  0  0  0
    0.7480   -3.1887   -0.2149 H   0  0  0  0  0  0
   -0.9312   -3.2597   -0.6771 H   0  0  0  0  0  0
    0.2217   -2.3856   -1.6804 H   0  0  0  0  0  0
   -2.5820   -0.1564   -2.1229 H   0  0  0  0  0  0
   -0.9452    0.0513   -2.1106 H   0  0  0  0  0  0
    2.3653   -1.8013    0.2045 H   0  0  0  0  0  0
    1.4488    3.0659   -0.1128 H   0  0  0  0  0  0
    3.7779    2.2414   -0.0624 H   0  0  0  0  0  0
   -5.7333    0.7062    0.7124 H   0  0  0  0  0  0
   -4.6304   -0.6713    0.6434 H   0  0  0  0  0  0
   -4.4467    0.5490    1.9137 H   0  0  0  0  0  0
    5.1401    0.3841    0.0722 H   0  0  0  0  0  0
   -1.7017   -0.5561   -1.8293 N   0  3  0  0  0  0
   -1.5809   -1.4640   -2.2545 H   0  0  0  0  0  0
  1  5  1  0  0  0
  1 15  1  0  0  0
  2 13  1  0  0  0
  2 34  1  0  0  0
  3  4  1  0  0  0
  3  6  1  0  0  0
  3  9  1  0  0  0
  3 10  1  0  0  0
  4  5  1  0  0  0
  4 16  1  0  0  0
  4 35  1  0  0  0
  5  7  1  0  0  0
  5 17  1  0  0  0
  6  8  2  0  0  0
  6 11  1  0  0  0
  7  8  1  0  0  0
  7 18  1  0  0  0
  7 19  1  0  0  0
  8 12  1  0  0  0
  9 20  1  0  0  0
  9 21  1  0  0  0
  9 22  1  0  0  0
 10 23  1  0  0  0
 10 24  1  0  0  0
 10 25  1  0  0  0
 11 13  2  0  0  0
 11 28  1  0  0  0
 12 14  2  0  0  0
 12 29  1  0  0  0
 13 14  1  0  0  0
 14 30  1  0  0  0
 15 31  1  0  0  0
 15 32  1  0  0  0
 15 33  1  0  0  0
 26 35  1  0  0  0
 27 35  1  0  0  0
 35 36  1  0  0  0
M  CHG  1  35   1
M  END
> <LID>
L019835

> <PC_CID>
18343449

> <Names>


> <CAS_Numbers>


$$$$
5284603
                    3D
 Structure written by MMmdl.
 45 49  0  0  1  0            999 V2000
   -1.5888    0.9940   -1.1432 O   0  0  0  0  0  0
    2.8457    1.5143   -0.3424 O   0  0  0  0  0  0
   -1.5137    3.2781    0.3609 O   0  0  0  0  0  0
   -3.9887   -0.7879   -0.2782 O   0  0  0  0  0  0
    0.6447    0.4460   -0.6022 C   0  0  1  0  0  0
    1.8463    0.7530    0.3241 C   0  0  1  0  0  0
    2.4737   -0.6194    0.6908 C   0  0  1  0  0  0
   -0.3115    1.6283   -0.9414 C   0  0  2  0  0  0
    1.1734   -0.2242   -1.8995 C   0  0  0  0  0  0
   -0.3224   -0.4934    0.0596 C   0  0  0  0  0  0
    1.4241    1.6074    1.5396 C   0  0  0  0  0  0
    1.4640   -1.5476    1.4327 C   0  0  0  0  0  0
    2.0024   -1.4921   -1.6090 C   0  0  0  0  0  0
    0.0097   -1.5185    0.9575 C   0  0  0  0  0  0
    0.7380    2.9172    1.1088 C   0  0  0  0  0  0
   -0.4646    2.6573    0.1997 C   0  0  0  0  0  0
   -1.5896   -0.1438   -0.3776 C   0  0  0  0  0  0
    3.9167   -2.3986   -0.3278 C   0  0  0  0  0  0
   -1.0654   -2.3177    1.3916 C   0  0  0  0  0  0
   -2.6636   -0.9671    0.0594 C   0  0  0  0  0  0
   -2.3776   -2.0526    0.9280 C   0  0  0  0  0  0
   -4.3406    0.3067   -1.1096 C   0  0  0  0  0  0
    3.3249   -0.4489    1.3521 H   0  0  0  0  0  0
    0.0093    2.1553   -1.8402 H   0  0  0  0  0  0
    1.7842    0.4832   -2.4616 H   0  0  0  0  0  0
    0.3462   -0.4812   -2.5627 H   0  0  0  0  0  0
    2.2931    1.8371    2.1576 H   0  0  0  0  0  0
    0.7422    1.0526    2.1847 H   0  0  0  0  0  0
    1.4380   -1.2464    2.4803 H   0  0  0  0  0  0
    1.8061   -2.5812    1.4495 H   0  0  0  0  0  0
    1.3543   -2.3166   -1.3104 H   0  0  0  0  0  0
    2.4997   -1.8148   -2.5244 H   0  0  0  0  0  0
    1.4390    3.5651    0.5828 H   0  0  0  0  0  0
    0.4050    3.4669    1.9896 H   0  0  0  0  0  0
    2.4968    2.3701   -0.5424 H   0  0  0  0  0  0
    4.4407   -2.6553   -1.2490 H   0  0  0  0  0  0
    4.6705   -2.1656    0.4248 H   0  0  0  0  0  0
    3.3661   -3.2815   -0.0035 H   0  0  0  0  0  0
   -0.8939   -3.1216    2.0924 H   0  0  0  0  0  0
   -3.1893   -2.6763    1.2728 H   0  0  0  0  0  0
   -5.4178    0.2990   -1.2746 H   0  0  0  0  0  0
   -4.0880    1.2596   -0.6426 H   0  0  0  0  0  0
   -3.8594    0.2378   -2.0860 H   0  0  0  0  0  0
    3.0201   -1.2423   -0.5562 N   0  3  2  0  0  0
    3.6151   -0.5187   -0.9372 H   0  0  0  0  0  0
  1  8  1  0  0  0
  1 17  1  0  0  0
  2  6  1  0  0  0
  2 35  1  0  0  0
  3 16  2  0  0  0
  4 20  1  0  0  0
  4 22  1  0  0  0
  5  6  1  0  0  0
  5  8  1  0  0  0
  5  9  1  0  0  0
  5 10  1  0  0  0
  6  7  1  0  0  0
  6 11  1  0  0  0
  7 12  1  0  0  0
  7 23  1  0  0  0
  7 44  1  0  0  0
  8 16  1  0  0  0
  8 24  1  0  0  0
  9 13  1  0  0  0
  9 25  1  0  0  0
  9 26  1  0  0  0
 10 14  2  0  0  0
 10 17  1  0  0  0
 11 15  1  0  0  0
 11 27  1  0  0  0
 11 28  1  0  0  0
 12 14  1  0  0  0
 12 29  1  0  0  0
 12 30  1  0  0  0
 13 31  1  0  0  0
 13 32  1  0  0  0
 13 44  1  0  0  0
 14 19  1  0  0  0
 15 16  1  0  0  0
 15 33  1  0  0  0
 15 34  1  0  0  0
 17 20  2  0  0  0
 18 36  1  0  0  0
 18 37  1  0  0  0
 18 38  1  0  0  0
 18 44  1  0  0  0
 19 21  2  0  0  0
 19 39  1  0  0  0
 20 21  1  0  0  0
 21 40  1  0  0  0
 22 41  1  0  0  0
 22 42  1  0  0  0
 22 43  1  0  0  0
 44 45  1  0  0  0
M  CHG  1  44   1
M  END
> <LID>
L001019

> <PC_CID>
5284603

> <Names>
Aspirin-oxycodone hydrochloride-oxycodone terephthalate combination;Oxycodone;oxycodone terephthalate

> <CAS_Numbers>
124-90-3;25333-72-6;76-42-6

$$$$
44215277
                    3D
 Structure written by MMmdl.
 67 71  0  0  1  0            999 V2000
   -1.7186    0.4864   -2.2035 O   0  0  0  0  0  0
    3.6367   -0.7646    2.5031 O   0  0  0  0  0  0
    1.2295   -0.9333    0.8754 N   0  0  0  0  0  0
    4.6632   -0.2489    0.5284 N   0  0  0  0  0  0
   -2.4320   -0.1863    0.0316 C   0  0  2  0  0  0
   -2.0442    1.0044   -0.9206 C   0  0  2  0  0  0
   -3.2768    1.9263   -1.0726 C   0  0  1  0  0  0
   -2.8155    0.4362    1.4044 C   0  0  0  0  0  0
   -1.2213   -1.1493    0.2472 C   0  0  0  0  0  0
   -0.7650    1.7979   -0.5017 C   0  0  0  0  0  0
   -3.6813   -0.9268   -0.4942 C   0  0  0  0  0  0
   -4.4543    1.1897   -1.7489 C   0  0  0  0  0  0
   -3.9517    1.4727    1.2990 C   0  0  0  0  0  0
    0.2985    0.8969    0.0684 C   0  0  0  0  0  0
    0.0601   -0.4043    0.3888 C   0  0  0  0  0  0
   -4.6322   -0.2628   -1.3198 C   0  0  0  0  0  0
    1.6636    1.1902    0.3840 C   0  0  0  0  0  0
   -3.9318   -2.2696   -0.1195 C   0  0  0  0  0  0
   -5.7791   -0.9490   -1.7705 C   0  0  0  0  0  0
    2.2223    0.0223    0.8500 C   0  0  0  0  0  0
   -5.0796   -2.9456   -0.5727 C   0  0  0  0  0  0
   -6.0029   -2.2868   -1.4018 C   0  0  0  0  0  0
    2.3246    2.5356    0.2401 C   0  0  0  0  0  0
    3.5693   -0.3464    1.3455 C   0  0  0  0  0  0
    5.9979   -0.5338    1.1380 C   0  0  0  0  0  0
    4.5386   -0.0641   -0.9500 C   0  0  0  0  0  0
    6.3048   -2.0442    1.2057 C   0  0  0  0  0  0
    7.1851    0.2630    0.5691 C   0  0  0  0  0  0
    5.0785    1.2854   -1.4639 C   0  0  0  0  0  0
    5.0713   -1.2575   -1.7615 C   0  0  0  0  0  0
   -3.0186    2.7860   -1.6928 H   0  0  0  0  0  0
   -1.9489    0.9145    1.8616 H   0  0  0  0  0  0
   -3.1135   -0.3479    2.1018 H   0  0  0  0  0  0
   -1.1262   -1.8124   -0.6137 H   0  0  0  0  0  0
   -1.3718   -1.7897    1.1166 H   0  0  0  0  0  0
   -0.9969    2.5256    0.2755 H   0  0  0  0  0  0
   -0.3575    2.3692   -1.3372 H   0  0  0  0  0  0
   -4.2956    1.1832   -2.8281 H   0  0  0  0  0  0
   -5.3859    1.7349   -1.5904 H   0  0  0  0  0  0
   -4.9048    0.9856    1.0926 H   0  0  0  0  0  0
   -4.0782    1.9852    2.2528 H   0  0  0  0  0  0
   -2.4159   -0.0888   -2.4818 H   0  0  0  0  0  0
   -3.2536   -2.8040    0.5273 H   0  0  0  0  0  0
    1.3528   -1.8827    1.1978 H   0  0  0  0  0  0
   -6.4967   -0.4466   -2.4030 H   0  0  0  0  0  0
   -5.2531   -3.9708   -0.2801 H   0  0  0  0  0  0
   -6.8844   -2.8049   -1.7499 H   0  0  0  0  0  0
    1.6520    3.3239    0.5782 H   0  0  0  0  0  0
    3.2345    2.5915    0.8374 H   0  0  0  0  0  0
    2.5729    2.7239   -0.8041 H   0  0  0  0  0  0
    5.9649   -0.1902    2.1740 H   0  0  0  0  0  0
    3.4875   -0.0466   -1.2283 H   0  0  0  0  0  0
    7.1954   -2.2276    1.8073 H   0  0  0  0  0  0
    5.4883   -2.6022    1.6643 H   0  0  0  0  0  0
    6.4900   -2.4766    0.2245 H   0  0  0  0  0  0
    8.0692    0.1185    1.1909 H   0  0  0  0  0  0
    7.4606   -0.0530   -0.4351 H   0  0  0  0  0  0
    6.9801    1.3335    0.5602 H   0  0  0  0  0  0
    4.5815    1.5644   -2.3934 H   0  0  0  0  0  0
    4.9127    2.0902   -0.7497 H   0  0  0  0  0  0
    6.1432    1.2542   -1.6867 H   0  0  0  0  0  0
    4.7942   -1.1603   -2.8115 H   0  0  0  0  0  0
    6.1562   -1.3360   -1.7285 H   0  0  0  0  0  0
    4.6500   -2.1968   -1.4021 H   0  0  0  0  0  0
   -3.6728    2.4808    0.2500 N   0  3  0  0  0  0
   -4.4890    3.0642    0.1320 H   0  0  0  0  0  0
   -2.9130    3.0603    0.5773 H   0  0  0  0  0  0
  1  6  1  0  0  0
  1 42  1  0  0  0
  2 24  2  0  0  0
  3 15  1  0  0  0
  3 20  1  0  0  0
  3 44  1  0  0  0
  4 24  1  0  0  0
  4 25  1  0  0  0
  4 26  1  0  0  0
  5  6  1  0  0  0
  5  8  1  0  0  0
  5  9  1  0  0  0
  5 11  1  0  0  0
  6  7  1  0  0  0
  6 10  1  0  0  0
  7 12  1  0  0  0
  7 31  1  0  0  0
  7 65  1  0  0  0
  8 13  1  0  0  0
  8 32  1  0  0  0
  8 33  1  0  0  0
  9 15  1  0  0  0
  9 34  1  0  0  0
  9 35  1  0  0  0
 10 14  1  0  0  0
 10 36  1  0  0  0
 10 37  1  0  0  0
 11 16  1  0  0  0
 11 18  2  0  0  0
 12 16  1  0  0  0
 12 38  1  0  0  0
 12 39  1  0  0  0
 13 40  1  0  0  0
 13 41  1  0  0  0
 13 65  1  0  0  0
 14 15  2  0  0  0
 14 17  1  0  0  0
 16 19  2  0  0  0
 17 20  2  0  0  0
 17 23  1  0  0  0
 18 21  1  0  0  0
 18 43  1  0  0  0
 19 22  1  0  0  0
 19 45  1  0  0  0
 20 24  1  0  0  0
 21 22  2  0  0  0
 21 46  1  0  0  0
 22 47  1  0  0  0
 23 48  1  0  0  0
 23 49  1  0  0  0
 23 50  1  0  0  0
 25 27  1  0  0  0
 25 28  1  0  0  0
 25 51  1  0  0  0
 26 29  1  0  0  0
 26 30  1  0  0  0
 26 52  1  0  0  0
 27 53  1  0  0  0
 27 54  1  0  0  0
 27 55  1  0  0  0
 28 56  1  0  0  0
 28 57  1  0  0  0
 28 58  1  0  0  0
 29 59  1  0  0  0
 29 60  1  0  0  0
 29 61  1  0  0  0
 30 62  1  0  0  0
 30 63  1  0  0  0
 30 64  1  0  0  0
 65 66  1  0  0  0
 65 67  1  0  0  0
M  CHG  1  65   1
M  END
> <LID>
L020195

> <PC_CID>
44215277

> <Names>


> <CAS_Numbers>


$$$$
44215276
                    3D
 Structure written by MMmdl.
 61 65  0  0  1  0            999 V2000
   -1.5812    1.2175   -2.3346 O   0  0  0  0  0  0
    4.5905   -1.4879   -1.4565 O   0  0  0  0  0  0
    1.7861   -1.1859   -0.6317 N   0  0  0  0  0  0
    5.0087   -0.5519    0.5718 N   0  0  0  0  0  0
   -1.8938   -0.1518   -0.3364 C   0  0  2  0  0  0
   -1.6046    1.2834   -0.9141 C   0  0  2  0  0  0
   -2.7630    2.2171   -0.4906 C   0  0  1  0  0  0
   -1.9362   -0.0164    1.2124 C   0  0  0  0  0  0
   -0.7515   -1.1470   -0.7162 C   0  0  0  0  0  0
   -0.2057    1.8739   -0.5432 C   0  0  0  0  0  0
   -3.2833   -0.6606   -0.7800 C   0  0  0  0  0  0
   -4.1078    1.7607   -1.0990 C   0  0  0  0  0  0
   -2.9811    1.0085    1.6968 C   0  0  0  0  0  0
    0.8703    0.8203   -0.5430 C   0  0  0  0  0  0
    0.5913   -0.5097   -0.6238 C   0  0  0  0  0  0
   -4.3220    0.2514   -1.1197 C   0  0  0  0  0  0
    2.2923    0.9745   -0.4873 C   0  0  0  0  0  0
   -3.5674   -2.0481   -0.8023 C   0  0  0  0  0  0
   -5.5928   -0.2315   -1.4956 C   0  0  0  0  0  0
    2.8281   -0.2928   -0.5090 C   0  0  0  0  0  0
   -4.8387   -2.5208   -1.1771 C   0  0  0  0  0  0
   -5.8520   -1.6128   -1.5273 C   0  0  0  0  0  0
    3.0332    2.2876   -0.4413 C   0  0  0  0  0  0
    4.2133   -0.8133   -0.4976 C   0  0  0  0  0  0
    6.4226   -0.9547    0.5743 C   0  0  0  0  0  0
    4.5398    0.0249    1.8419 C   0  0  0  0  0  0
    7.3074    0.1187   -0.0745 C   0  0  0  0  0  0
    3.8726   -1.0352    2.7303 C   0  0  0  0  0  0
   -2.5649    3.2314   -0.8398 H   0  0  0  0  0  0
   -0.9584    0.2725    1.5982 H   0  0  0  0  0  0
   -2.1507   -0.9843    1.6677 H   0  0  0  0  0  0
   -0.8905   -1.4834   -1.7445 H   0  0  0  0  0  0
   -0.7772   -2.0401   -0.0914 H   0  0  0  0  0  0
   -0.2168    2.2972    0.4608 H   0  0  0  0  0  0
    0.0744    2.6909   -1.2097 H   0  0  0  0  0  0
   -4.1619    2.0997   -2.1344 H   0  0  0  0  0  0
   -4.9411    2.2420   -0.5851 H   0  0  0  0  0  0
   -3.9930    0.6270    1.5597 H   0  0  0  0  0  0
   -2.8684    1.1776    2.7679 H   0  0  0  0  0  0
   -1.3495    2.0662   -2.6795 H   0  0  0  0  0  0
   -2.8197   -2.7749   -0.5260 H   0  0  0  0  0  0
    1.8913   -2.1881   -0.7027 H   0  0  0  0  0  0
   -6.3780    0.4613   -1.7610 H   0  0  0  0  0  0
   -5.0369   -3.5825   -1.1922 H   0  0  0  0  0  0
   -6.8281   -1.9747   -1.8151 H   0  0  0  0  0  0
    2.7195    2.9248   -1.2681 H   0  0  0  0  0  0
    2.8215    2.8079    0.4929 H   0  0  0  0  0  0
    4.1105    2.1395   -0.5178 H   0  0  0  0  0  0
    6.7632   -1.1370    1.5945 H   0  0  0  0  0  0
    6.5590   -1.9076    0.0600 H   0  0  0  0  0  0
    5.3797    0.4662    2.3803 H   0  0  0  0  0  0
    3.8540    0.8535    1.6851 H   0  0  0  0  0  0
    8.3559   -0.1790   -0.0528 H   0  0  0  0  0  0
    7.0317    0.2834   -1.1166 H   0  0  0  0  0  0
    7.2214    1.0708    0.4499 H   0  0  0  0  0  0
    3.5628   -0.6022    3.6815 H   0  0  0  0  0  0
    2.9853   -1.4538    2.2547 H   0  0  0  0  0  0
    4.5564   -1.8564    2.9469 H   0  0  0  0  0  0
   -2.8408    2.3045    0.9929 N   0  3  0  0  0  0
   -3.6164    2.8996    1.2475 H   0  0  0  0  0  0
   -1.9884    2.7375    1.3183 H   0  0  0  0  0  0
  1  6  1  0  0  0
  1 40  1  0  0  0
  2 24  2  0  0  0
  3 15  1  0  0  0
  3 20  1  0  0  0
  3 42  1  0  0  0
  4 24  1  0  0  0
  4 25  1  0  0  0
  4 26  1  0  0  0
  5  6  1  0  0  0
  5  8  1  0  0  0
  5  9  1  0  0  0
  5 11  1  0  0  0
  6  7  1  0  0  0
  6 10  1  0  0  0
  7 12  1  0  0  0
  7 29  1  0  0  0
  7 59  1  0  0  0
  8 13  1  0  0  0
  8 30  1  0  0  0
  8 31  1  0  0  0
  9 15  1  0  0  0
  9 32  1  0  0  0
  9 33  1  0  0  0
 10 14  1  0  0  0
 10 34  1  0  0  0
 10 35  1  0  0  0
 11 16  1  0  0  0
 11 18  2  0  0  0
 12 16  1  0  0  0
 12 36  1  0  0  0
 12 37  1  0  0  0
 13 38  1  0  0  0
 13 39  1  0  0  0
 13 59  1  0  0  0
 14 15  2  0  0  0
 14 17  1  0  0  0
 16 19  2  0  0  0
 17 20  2  0  0  0
 17 23  1  0  0  0
 18 21  1  0  0  0
 18 41  1  0  0  0
 19 22  1  0  0  0
 19 43  1  0  0  0
 20 24  1  0  0  0
 21 22  2  0  0  0
 21 44  1  0  0  0
 22 45  1  0  0  0
 23 46  1  0  0  0
 23 47  1  0  0  0
 23 48  1  0  0  0
 25 27  1  0  0  0
 25 49  1  0  0  0
 25 50  1  0  0  0
 26 28  1  0  0  0
 26 51  1  0  0  0
 26 52  1  0  0  0
 27 53  1  0  0  0
 27 54  1  0  0  0
 27 55  1  0  0  0
 28 56  1  0  0  0
 28 57  1  0  0  0
 28 58  1  0  0  0
 59 60  1  0  0  0
 59 61  1  0  0  0
M  CHG  1  59   1
M  END
> <LID>
L020194

> <PC_CID>
44215276

> <Names>


> <CAS_Numbers>


$$$$
44215279
                    3D
 Structure written by MMmdl.
 70 75  0  0  1  0            999 V2000
    3.1590   -2.8919   -0.2251 O   0  0  0  0  0  0
    0.3772   -2.0666   -0.6696 N   0  0  0  0  0  0
    3.5391   -0.6621   -0.4954 N   0  0  0  0  0  0
   -3.3385   -1.2755   -0.3632 C   0  0  2  0  0  0
   -3.2797   -1.1590    1.1979 C   0  0  2  0  0  0
   -4.4842   -0.3263    1.6790 C   0  0  1  0  0  0
   -4.6708   -1.9787   -0.7265 C   0  0  0  0  0  0
   -2.1568   -2.1787   -0.8398 C   0  0  0  0  0  0
   -1.9248   -0.6323    1.7718 C   0  0  0  0  0  0
   -3.3225    0.1426   -0.9810 C   0  0  0  0  0  0
   -4.4225    1.1190    1.1435 C   0  0  0  0  0  0
   -5.9034   -1.2524   -0.1589 C   0  0  0  0  0  0
   -0.8789   -1.7754   -0.2009 C   0  0  0  0  0  0
   -0.7395   -1.0964    0.9679 C   0  0  0  0  0  0
   -3.8470    1.2559   -0.2625 C   0  0  0  0  0  0
    0.6605   -0.9454    1.2289 C   0  0  0  0  0  0
   -2.8405    0.3595   -2.2960 C   0  0  0  0  0  0
   -3.8451    2.5406   -0.8447 C   0  0  0  0  0  0
    1.3260   -1.5302    0.1745 C   0  0  0  0  0  0
   -2.8438    1.6447   -2.8684 C   0  0  0  0  0  0
   -3.3420    2.7382   -2.1416 C   0  0  0  0  0  0
    1.2585   -0.2862    2.4434 C   0  0  0  0  0  0
    2.7537   -1.7296   -0.1690 C   0  0  0  0  0  0
    4.9108   -0.9176   -1.0235 C   0  0  0  0  0  0
    3.0608    0.7415   -0.4709 C   0  0  0  0  0  0
    5.4382    0.1389   -2.0158 C   0  0  0  0  0  0
    5.9307   -1.1729    0.1020 C   0  0  0  0  0  0
    3.7481    1.6649    0.5304 C   0  0  0  0  0  0
    4.2425    1.1912    1.7662 C   0  0  0  0  0  0
    3.8640    3.0384    0.2261 C   0  0  0  0  0  0
    4.8562    2.0739    2.6755 C   0  0  0  0  0  0
    4.4776    3.9225    1.1346 C   0  0  0  0  0  0
    4.9753    3.4403    2.3598 C   0  0  0  0  0  0
   -3.3869   -2.1712    1.5931 H   0  0  0  0  0  0
   -4.4910   -0.2891    2.7691 H   0  0  0  0  0  0
   -4.7661   -2.0665   -1.8096 H   0  0  0  0  0  0
   -4.6659   -3.0000   -0.3425 H   0  0  0  0  0  0
   -2.0609   -2.2384   -1.9217 H   0  0  0  0  0  0
   -2.3523   -3.2051   -0.5272 H   0  0  0  0  0  0
   -1.8082   -0.9433    2.8102 H   0  0  0  0  0  0
   -1.8851    0.4559    1.7682 H   0  0  0  0  0  0
   -3.7965    1.7192    1.8046 H   0  0  0  0  0  0
   -5.4100    1.5813    1.1790 H   0  0  0  0  0  0
   -6.0745   -0.3106   -0.6807 H   0  0  0  0  0  0
   -6.7985   -1.8537   -0.3193 H   0  0  0  0  0  0
   -2.4663   -0.4490   -2.9017 H   0  0  0  0  0  0
    0.5820   -2.5823   -1.5137 H   0  0  0  0  0  0
   -4.2355    3.3842   -0.2942 H   0  0  0  0  0  0
   -2.4673    1.7900   -3.8703 H   0  0  0  0  0  0
   -3.3455    3.7250   -2.5806 H   0  0  0  0  0  0
    0.5768   -0.3522    3.2911 H   0  0  0  0  0  0
    2.1891   -0.7765    2.7267 H   0  0  0  0  0  0
    1.4538    0.7674    2.2468 H   0  0  0  0  0  0
    4.8726   -1.8327   -1.6178 H   0  0  0  0  0  0
    3.1515    1.1675   -1.4692 H   0  0  0  0  0  0
    1.9945    0.8277   -0.2754 H   0  0  0  0  0  0
    6.3975   -0.1713   -2.4309 H   0  0  0  0  0  0
    4.7573    0.2725   -2.8569 H   0  0  0  0  0  0
    5.5961    1.1079   -1.5421 H   0  0  0  0  0  0
    6.8626   -1.5644   -0.3068 H   0  0  0  0  0  0
    6.1803   -0.2592    0.6387 H   0  0  0  0  0  0
    5.5643   -1.9015    0.8255 H   0  0  0  0  0  0
    4.1613    0.1466    2.0245 H   0  0  0  0  0  0
    3.4824    3.4205   -0.7094 H   0  0  0  0  0  0
    5.2357    1.7019    3.6158 H   0  0  0  0  0  0
    4.5650    4.9713    0.8918 H   0  0  0  0  0  0
    5.4459    4.1178    3.0570 H   0  0  0  0  0  0
   -5.7513   -1.0000    1.2924 N   0  3  0  0  0  0
   -6.5311   -0.4419    1.6101 H   0  0  0  0  0  0
   -5.7831   -1.8914    1.7663 H   0  0  0  0  0  0
  1 23  2  0  0  0
  2 13  1  0  0  0
  2 19  1  0  0  0
  2 47  1  0  0  0
  3 23  1  0  0  0
  3 24  1  0  0  0
  3 25  1  0  0  0
  4  5  1  0  0  0
  4  7  1  0  0  0
  4  8  1  0  0  0
  4 10  1  0  0  0
  5  6  1  0  0  0
  5  9  1  0  0  0
  5 34  1  0  0  0
  6 11  1  0  0  0
  6 35  1  0  0  0
  6 68  1  0  0  0
  7 12  1  0  0  0
  7 36  1  0  0  0
  7 37  1  0  0  0
  8 13  1  0  0  0
  8 38  1  0  0  0
  8 39  1  0  0  0
  9 14  1  0  0  0
  9 40  1  0  0  0
  9 41  1  0  0  0
 10 15  1  0  0  0
 10 17  2  0  0  0
 11 15  1  0  0  0
 11 42  1  0  0  0
 11 43  1  0  0  0
 12 44  1  0  0  0
 12 45  1  0  0  0
 12 68  1  0  0  0
 13 14  2  0  0  0
 14 16  1  0  0  0
 15 18  2  0  0  0
 16 19  2  0  0  0
 16 22  1  0  0  0
 17 20  1  0  0  0
 17 46  1  0  0  0
 18 21  1  0  0  0
 18 48  1  0  0  0
 19 23  1  0  0  0
 20 21  2  0  0  0
 20 49  1  0  0  0
 21 50  1  0  0  0
 22 51  1  0  0  0
 22 52  1  0  0  0
 22 53  1  0  0  0
 24 26  1  0  0  0
 24 27  1  0  0  0
 24 54  1  0  0  0
 25 28  1  0  0  0
 25 55  1  0  0  0
 25 56  1  0  0  0
 26 57  1  0  0  0
 26 58  1  0  0  0
 26 59  1  0  0  0
 27 60  1  0  0  0
 27 61  1  0  0  0
 27 62  1  0  0  0
 28 29  2  0  0  0
 28 30  1  0  0  0
 29 31  1  0  0  0
 29 63  1  0  0  0
 30 32  2  0  0  0
 30 64  1  0  0  0
 31 33  2  0  0  0
 31 65  1  0  0  0
 32 33  1  0  0  0
 32 66  1  0  0  0
 33 67  1  0  0  0
 68 69  1  0  0  0
 68 70  1  0  0  0
M  CHG  1  68   1
M  END
> <LID>
L020197

> <PC_CID>
44215279

> <Names>


> <CAS_Numbers>


$$$$
44215278
                    3D
 Structure written by MMmdl.
 68 73  0  0  1  0            999 V2000
   -1.2129    1.3791   -1.8625 O   0  0  0  0  0  0
    2.8665   -1.9259    3.2157 O   0  0  0  0  0  0
    0.6796   -1.5969    0.8940 N   0  0  0  0  0  0
    3.9177   -1.8301    1.1978 N   0  0  0  0  0  0
   -2.5660    0.0305   -0.3419 C   0  0  2  0  0  0
   -1.8544    1.4107   -0.5941 C   0  0  2  0  0  0
   -2.9355    2.5161   -0.6283 C   0  0  1  0  0  0
   -3.2791    0.1325    1.0364 C   0  0  0  0  0  0
   -1.5265   -1.1337   -0.2753 C   0  0  0  0  0  0
   -0.6994    1.7506    0.4012 C   0  0  0  0  0  0
   -3.6617   -0.2254   -1.4000 C   0  0  0  0  0  0
   -3.9193    2.3092   -1.8013 C   0  0  0  0  0  0
   -4.2739    1.3076    1.1138 C   0  0  0  0  0  0
    0.1082    0.5329    0.7630 C   0  0  0  0  0  0
   -0.2876   -0.7310    0.4456 C   0  0  0  0  0  0
   -4.3000    0.8570   -2.0692 C   0  0  0  0  0  0
   -4.0902   -1.5447   -1.6864 C   0  0  0  0  0  0
    1.3604    0.4480    1.4496 C   0  0  0  0  0  0
   -5.3149    0.6038   -3.0154 C   0  0  0  0  0  0
    1.6976   -0.8829    1.4874 C   0  0  0  0  0  0
   -5.1046   -1.7875   -2.6308 C   0  0  0  0  0  0
   -5.7157   -0.7133   -3.2990 C   0  0  0  0  0  0
    2.1510    1.6082    1.9978 C   0  0  0  0  0  0
    2.8706   -1.5967    2.0295 C   0  0  0  0  0  0
    5.1360   -2.4931    1.6825 C   0  0  0  0  0  0
    3.9025   -1.5240   -0.2435 C   0  0  0  0  0  0
    5.0077   -4.0221    1.6230 C   0  0  0  0  0  0
    4.0736   -0.0478   -0.5758 C   0  0  0  0  0  0
    5.0771    0.7235    0.0509 C   0  0  0  0  0  0
    3.2197    0.5604   -1.5213 C   0  0  0  0  0  0
    5.2173    2.0906   -0.2582 C   0  0  0  0  0  0
    3.3581    1.9280   -1.8275 C   0  0  0  0  0  0
    4.3570    2.6935   -1.1961 C   0  0  0  0  0  0
   -2.4613    3.4902   -0.7563 H   0  0  0  0  0  0
   -3.8086   -0.7960    1.2546 H   0  0  0  0  0  0
   -2.5471    0.2417    1.8371 H   0  0  0  0  0  0
   -1.9523   -2.0216    0.1928 H   0  0  0  0  0  0
   -1.2407   -1.4237   -1.2873 H   0  0  0  0  0  0
   -1.0941    2.1451    1.3370 H   0  0  0  0  0  0
   -0.0425    2.5244    0.0006 H   0  0  0  0  0  0
   -3.4649    2.6907   -2.7167 H   0  0  0  0  0  0
   -4.8223    2.9023   -1.6499 H   0  0  0  0  0  0
   -4.6303    1.4274    2.1372 H   0  0  0  0  0  0
   -5.1595    1.1080    0.5104 H   0  0  0  0  0  0
   -1.8382    1.0860   -2.5086 H   0  0  0  0  0  0
   -3.6549   -2.3941   -1.1832 H   0  0  0  0  0  0
    0.6578   -2.6018    0.7932 H   0  0  0  0  0  0
   -5.7938    1.4253   -3.5283 H   0  0  0  0  0  0
   -5.4166   -2.8003   -2.8397 H   0  0  0  0  0  0
   -6.4947   -0.8988   -4.0239 H   0  0  0  0  0  0
    1.5921    2.1014    2.7929 H   0  0  0  0  0  0
    3.1084    1.2808    2.4031 H   0  0  0  0  0  0
    2.3455    2.3360    1.2101 H   0  0  0  0  0  0
    4.6967   -2.0688   -0.7554 H   0  0  0  0  0  0
    2.9803   -1.9012   -0.6880 H   0  0  0  0  0  0
    5.9954   -2.1767    1.0900 H   0  0  0  0  0  0
    5.3645   -2.1796    2.7026 H   0  0  0  0  0  0
    5.9235   -4.5004    1.9707 H   0  0  0  0  0  0
    4.1905   -4.3772    2.2516 H   0  0  0  0  0  0
    4.8210   -4.3643    0.6047 H   0  0  0  0  0  0
    5.7410    0.2730    0.7737 H   0  0  0  0  0  0
    2.4453   -0.0163   -2.0061 H   0  0  0  0  0  0
    5.9841    2.6772    0.2261 H   0  0  0  0  0  0
    2.6963    2.3893   -2.5458 H   0  0  0  0  0  0
    4.4635    3.7424   -1.4310 H   0  0  0  0  0  0
   -3.6511    2.5780    0.6748 N   0  3  0  0  0  0
   -4.3640    3.2921    0.6260 H   0  0  0  0  0  0
   -2.9789    2.8482    1.3787 H   0  0  0  0  0  0
  1  6  1  0  0  0
  1 45  1  0  0  0
  2 24  2  0  0  0
  3 15  1  0  0  0
  3 20  1  0  0  0
  3 47  1  0  0  0
  4 24  1  0  0  0
  4 25  1  0  0  0
  4 26  1  0  0  0
  5  6  1  0  0  0
  5  8  1  0  0  0
  5  9  1  0  0  0
  5 11  1  0  0  0
  6  7  1  0  0  0
  6 10  1  0  0  0
  7 12  1  0  0  0
  7 34  1  0  0  0
  7 66  1  0  0  0
  8 13  1  0  0  0
  8 35  1  0  0  0
  8 36  1  0  0  0
  9 15  1  0  0  0
  9 37  1  0  0  0
  9 38  1  0  0  0
 10 14  1  0  0  0
 10 39  1  0  0  0
 10 40  1  0  0  0
 11 16  1  0  0  0
 11 17  2  0  0  0
 12 16  1  0  0  0
 12 41  1  0  0  0
 12 42  1  0  0  0
 13 43  1  0  0  0
 13 44  1  0  0  0
 13 66  1  0  0  0
 14 15  2  0  0  0
 14 18  1  0  0  0
 16 19  2  0  0  0
 17 21  1  0  0  0
 17 46  1  0  0  0
 18 20  2  0  0  0
 18 23  1  0  0  0
 19 22  1  0  0  0
 19 48  1  0  0  0
 20 24  1  0  0  0
 21 22  2  0  0  0
 21 49  1  0  0  0
 22 50  1  0  0  0
 23 51  1  0  0  0
 23 52  1  0  0  0
 23 53  1  0  0  0
 25 27  1  0  0  0
 25 56  1  0  0  0
 25 57  1  0  0  0
 26 28  1  0  0  0
 26 54  1  0  0  0
 26 55  1  0  0  0
 27 58  1  0  0  0
 27 59  1  0  0  0
 27 60  1  0  0  0
 28 29  2  0  0  0
 28 30  1  0  0  0
 29 31  1  0  0  0
 29 61  1  0  0  0
 30 32  2  0  0  0
 30 62  1  0  0  0
 31 33  2  0  0  0
 31 63  1  0  0  0
 32 33  1  0  0  0
 32 64  1  0  0  0
 33 65  1  0  0  0
 66 67  1  0  0  0
 66 68  1  0  0  0
M  CHG  1  66   1
M  END
> <LID>
L020196

> <PC_CID>
44215278

> <Names>


> <CAS_Numbers>


$$$$
10226133
                    3D
 Structure written by MMmdl.
 69 72  0  0  1  0            999 V2000
   -1.1805    5.9550   -1.5976 O   0  0  0  0  0  0
    6.0445   -0.2041   -0.4003 O   0  0  0  0  0  0
    5.1492   -2.2860   -0.1690 N   0  0  0  0  0  0
   -3.6189    1.1532   -0.0186 C   0  0  0  0  0  0
   -2.4060   -0.9763   -0.2927 C   0  0  0  0  0  0
   -2.5731    1.6445    0.9944 C   0  0  0  0  0  0
   -1.3268   -0.5202    0.7046 C   0  0  0  0  0  0
   -1.2153    1.0003    0.7369 C   0  0  0  0  0  0
   -4.8065   -0.8095   -0.9117 C   0  0  0  0  0  0
   -0.0602    1.6897    0.5490 C   0  0  0  0  0  0
    1.2308    1.0067    0.3597 C   0  0  0  0  0  0
   -5.1742   -2.2577   -0.6398 C   0  0  0  0  0  0
   -0.0284    3.1617    0.5212 C   0  0  0  0  0  0
    1.9225    1.1277   -0.8638 C   0  0  0  0  0  0
    1.8131    0.2649    1.4101 C   0  0  0  0  0  0
   -4.7343   -3.2806   -1.5073 C   0  0  0  0  0  0
   -5.9625   -2.5864    0.4834 C   0  0  0  0  0  0
   -0.6345    3.8728   -0.5380 C   0  0  0  0  0  0
    0.6513    3.8751    1.5315 C   0  0  0  0  0  0
    3.7291   -0.2803   -0.0084 C   0  0  0  0  0  0
    3.1654    0.4916   -1.0460 C   0  0  0  0  0  0
    3.0557   -0.3719    1.2294 C   0  0  0  0  0  0
   -0.5830    5.2798   -0.5737 C   0  0  0  0  0  0
   -5.0755   -4.6225   -1.2492 C   0  0  0  0  0  0
   -6.3034   -3.9286    0.7405 C   0  0  0  0  0  0
    0.7048    5.2820    1.4965 C   0  0  0  0  0  0
    5.0684   -0.9298   -0.2073 C   0  0  0  0  0  0
    0.0857    5.9855    0.4456 C   0  0  0  0  0  0
   -5.8595   -4.9468   -0.1252 C   0  0  0  0  0  0
    6.4505   -2.9606   -0.2839 C   0  0  0  0  0  0
    3.9963   -3.2001   -0.1133 C   0  0  0  0  0  0
    7.1254   -3.1085    1.0869 C   0  0  0  0  0  0
    3.3449   -3.3774   -1.4928 C   0  0  0  0  0  0
   -4.5887    1.5860    0.2304 H   0  0  0  0  0  0
   -3.3623    1.5055   -1.0193 H   0  0  0  0  0  0
   -2.0902   -0.7442   -1.3111 H   0  0  0  0  0  0
   -2.5005   -2.0605   -0.2320 H   0  0  0  0  0  0
   -2.5352    2.7322    0.9862 H   0  0  0  0  0  0
   -2.8873    1.3696    2.0021 H   0  0  0  0  0  0
   -1.5806   -0.8657    1.7075 H   0  0  0  0  0  0
   -0.3862   -1.0026    0.4436 H   0  0  0  0  0  0
   -5.7029   -0.2071   -0.7565 H   0  0  0  0  0  0
   -4.5229   -0.6776   -1.9572 H   0  0  0  0  0  0
    1.4998    1.7108   -1.6691 H   0  0  0  0  0  0
    1.3065    0.1847    2.3609 H   0  0  0  0  0  0
   -4.1320   -3.0412   -2.3716 H   0  0  0  0  0  0
   -6.3082   -1.8114    1.1521 H   0  0  0  0  0  0
   -1.1429    3.3360   -1.3258 H   0  0  0  0  0  0
    1.1328    3.3430    2.3392 H   0  0  0  0  0  0
    3.6827    0.5945   -1.9892 H   0  0  0  0  0  0
    3.4905   -0.9303    2.0461 H   0  0  0  0  0  0
   -4.7363   -5.4035   -1.9138 H   0  0  0  0  0  0
   -6.9063   -4.1776    1.6015 H   0  0  0  0  0  0
    1.2229    5.8217    2.2755 H   0  0  0  0  0  0
    0.1302    7.0646    0.4241 H   0  0  0  0  0  0
   -6.1214   -5.9760    0.0721 H   0  0  0  0  0  0
    6.3275   -3.9457   -0.7363 H   0  0  0  0  0  0
    7.1114   -2.4218   -0.9650 H   0  0  0  0  0  0
    4.3167   -4.1761    0.2542 H   0  0  0  0  0  0
    3.2526   -2.8745    0.6109 H   0  0  0  0  0  0
   -1.0821    6.8926   -1.5331 H   0  0  0  0  0  0
    8.0813   -3.6241    0.9938 H   0  0  0  0  0  0
    7.3171   -2.1361    1.5417 H   0  0  0  0  0  0
    6.5033   -3.6835    1.7734 H   0  0  0  0  0  0
    2.5197   -4.0877   -1.4413 H   0  0  0  0  0  0
    2.9457   -2.4368   -1.8723 H   0  0  0  0  0  0
    4.0623   -3.7553   -2.2218 H   0  0  0  0  0  0
   -3.7181   -0.3287   -0.0240 N   0  3  2  0  0  0
   -3.9829   -0.5956    0.9135 H   0  0  0  0  0  0
  1 23  1  0  0  0
  1 61  1  0  0  0
  2 27  2  0  0  0
  3 27  1  0  0  0
  3 30  1  0  0  0
  3 31  1  0  0  0
  4  6  1  0  0  0
  4 34  1  0  0  0
  4 35  1  0  0  0
  4 68  1  0  0  0
  5  7  1  0  0  0
  5 36  1  0  0  0
  5 37  1  0  0  0
  5 68  1  0  0  0
  6  8  1  0  0  0
  6 38  1  0  0  0
  6 39  1  0  0  0
  7  8  1  0  0  0
  7 40  1  0  0  0
  7 41  1  0  0  0
  8 10  2  0  0  0
  9 12  1  0  0  0
  9 42  1  0  0  0
  9 43  1  0  0  0
  9 68  1  0  0  0
 10 11  1  0  0  0
 10 13  1  0  0  0
 11 14  2  0  0  0
 11 15  1  0  0  0
 12 16  2  0  0  0
 12 17  1  0  0  0
 13 18  2  0  0  0
 13 19  1  0  0  0
 14 21  1  0  0  0
 14 44  1  0  0  0
 15 22  2  0  0  0
 15 45  1  0  0  0
 16 24  1  0  0  0
 16 46  1  0  0  0
 17 25  2  0  0  0
 17 47  1  0  0  0
 18 23  1  0  0  0
 18 48  1  0  0  0
 19 26  2  0  0  0
 19 49  1  0  0  0
 20 21  2  0  0  0
 20 22  1  0  0  0
 20 27  1  0  0  0
 21 50  1  0  0  0
 22 51  1  0  0  0
 23 28  2  0  0  0
 24 29  2  0  0  0
 24 52  1  0  0  0
 25 29  1  0  0  0
 25 53  1  0  0  0
 26 28  1  0  0  0
 26 54  1  0  0  0
 28 55  1  0  0  0
 29 56  1  0  0  0
 30 32  1  0  0  0
 30 57  1  0  0  0
 30 58  1  0  0  0
 31 33  1  0  0  0
 31 59  1  0  0  0
 31 60  1  0  0  0
 32 62  1  0  0  0
 32 63  1  0  0  0
 32 64  1  0  0  0
 33 65  1  0  0  0
 33 66  1  0  0  0
 33 67  1  0  0  0
 68 69  1  0  0  0
M  CHG  1  68   1
M  END
> <LID>
L020868

> <PC_CID>
10226133

> <Names>


> <CAS_Numbers>


$$$$
11465215
                    3D
 Structure written by MMmdl.
 69 72  0  0  1  0            999 V2000
   -1.4246   -2.0323   -0.2161 O   0  0  0  0  0  0
    4.6314   -0.4297   -3.0771 O   0  0  0  0  0  0
    5.3886    1.0764   -1.5448 N   0  0  0  0  0  0
   -1.4442    1.5502    0.7911 C   0  0  0  0  0  0
   -2.8762    1.6413    1.3151 C   0  0  0  0  0  0
   -0.4855    2.3670    1.6543 C   0  0  0  0  0  0
   -2.9454    1.2786    2.8094 C   0  0  0  0  0  0
   -0.5960    1.9639    3.1335 C   0  0  0  0  0  0
   -1.0799    0.8413   -0.3089 C   0  0  0  0  0  0
    0.3224    0.7270   -0.7534 C   0  0  0  0  0  0
   -2.0798    0.1247   -1.1208 C   0  0  0  0  0  0
    0.6920    1.1700   -2.0415 C   0  0  0  0  0  0
    1.3019    0.1326    0.0719 C   0  0  0  0  0  0
   -2.2005   -1.2855   -1.0674 C   0  0  0  0  0  0
   -2.8954    0.8548   -2.0132 C   0  0  0  0  0  0
    3.0032    0.4789   -1.6476 C   0  0  0  0  0  0
    2.0217    1.0445   -2.4876 C   0  0  0  0  0  0
    2.6321    0.0067   -0.3710 C   0  0  0  0  0  0
   -3.1183   -1.9449   -1.9117 C   0  0  0  0  0  0
   -3.8222    0.1935   -2.8409 C   0  0  0  0  0  0
    4.4141    0.3393   -2.1400 C   0  0  0  0  0  0
   -3.9319   -1.2081   -2.7924 C   0  0  0  0  0  0
    6.7859    0.9564   -1.9873 C   0  0  0  0  0  0
    5.1603    2.1249   -0.5359 C   0  0  0  0  0  0
   -1.8362   -2.1911    1.0873 C   0  0  0  0  0  0
    7.0629    1.7943   -3.2455 C   0  0  0  0  0  0
    5.5209    1.6615    0.8848 C   0  0  0  0  0  0
   -0.8529   -2.2582    2.0948 C   0  0  0  0  0  0
   -3.1991   -2.3185    1.4469 C   0  0  0  0  0  0
   -2.5779   -2.5474    3.7981 C   0  0  0  0  0  0
   -1.2190   -2.4284    3.4438 C   0  0  0  0  0  0
   -3.5666   -2.4946    2.7951 C   0  0  0  0  0  0
   -2.9743   -2.7285    5.2486 C   0  0  0  0  0  0
   -3.2277    2.6630    1.1670 H   0  0  0  0  0  0
   -3.5636    0.9997    0.7655 H   0  0  0  0  0  0
    0.5497    2.2989    1.3269 H   0  0  0  0  0  0
   -0.7548    3.4183    1.5452 H   0  0  0  0  0  0
   -2.7130    0.2240    2.9480 H   0  0  0  0  0  0
   -3.9542    1.4343    3.1922 H   0  0  0  0  0  0
    0.0426    2.5989    3.7480 H   0  0  0  0  0  0
   -0.2529    0.9372    3.2709 H   0  0  0  0  0  0
   -0.0465    1.6101   -2.6956 H   0  0  0  0  0  0
    1.0342   -0.2287    1.0529 H   0  0  0  0  0  0
   -2.8054    1.9299   -2.0691 H   0  0  0  0  0  0
    2.2863    1.3900   -3.4768 H   0  0  0  0  0  0
    3.3605   -0.4672    0.2694 H   0  0  0  0  0  0
   -3.2031   -3.0211   -1.8766 H   0  0  0  0  0  0
   -4.4420    0.7610   -3.5195 H   0  0  0  0  0  0
   -4.6373   -1.7182   -3.4318 H   0  0  0  0  0  0
    7.4618    1.2760   -1.1937 H   0  0  0  0  0  0
    7.0371   -0.0893   -2.1737 H   0  0  0  0  0  0
    5.7713    2.9926   -0.7884 H   0  0  0  0  0  0
    4.1360    2.4974   -0.5540 H   0  0  0  0  0  0
    8.1077    1.7073   -3.5440 H   0  0  0  0  0  0
    6.4524    1.4669   -4.0874 H   0  0  0  0  0  0
    6.8554    2.8504   -3.0720 H   0  0  0  0  0  0
    5.3458    2.4622    1.6035 H   0  0  0  0  0  0
    4.9267    0.8058    1.1992 H   0  0  0  0  0  0
    6.5708    1.3795    0.9620 H   0  0  0  0  0  0
    0.1914   -2.1846    1.8319 H   0  0  0  0  0  0
   -3.9744   -2.2862    0.6963 H   0  0  0  0  0  0
   -0.4526   -2.4734    4.2038 H   0  0  0  0  0  0
   -4.6107   -2.5881    3.0560 H   0  0  0  0  0  0
   -3.8836   -3.3246    5.3312 H   0  0  0  0  0  0
   -2.1873   -3.2360    5.8074 H   0  0  0  0  0  0
   -3.1553   -1.7588    5.7127 H   0  0  0  0  0  0
   -1.9920    2.0789    3.6072 N   0  3  0  0  0  0
   -2.0384    1.7800    4.5710 H   0  0  0  0  0  0
   -2.2679    3.0492    3.5548 H   0  0  0  0  0  0
  1 14  1  0  0  0
  1 25  1  0  0  0
  2 21  2  0  0  0
  3 21  1  0  0  0
  3 23  1  0  0  0
  3 24  1  0  0  0
  4  5  1  0  0  0
  4  6  1  0  0  0
  4  9  2  0  0  0
  5  7  1  0  0  0
  5 34  1  0  0  0
  5 35  1  0  0  0
  6  8  1  0  0  0
  6 36  1  0  0  0
  6 37  1  0  0  0
  7 38  1  0  0  0
  7 39  1  0  0  0
  7 67  1  0  0  0
  8 40  1  0  0  0
  8 41  1  0  0  0
  8 67  1  0  0  0
  9 10  1  0  0  0
  9 11  1  0  0  0
 10 12  2  0  0  0
 10 13  1  0  0  0
 11 14  1  0  0  0
 11 15  2  0  0  0
 12 17  1  0  0  0
 12 42  1  0  0  0
 13 18  2  0  0  0
 13 43  1  0  0  0
 14 19  2  0  0  0
 15 20  1  0  0  0
 15 44  1  0  0  0
 16 17  2  0  0  0
 16 18  1  0  0  0
 16 21  1  0  0  0
 17 45  1  0  0  0
 18 46  1  0  0  0
 19 22  1  0  0  0
 19 47  1  0  0  0
 20 22  2  0  0  0
 20 48  1  0  0  0
 22 49  1  0  0  0
 23 26  1  0  0  0
 23 50  1  0  0  0
 23 51  1  0  0  0
 24 27  1  0  0  0
 24 52  1  0  0  0
 24 53  1  0  0  0
 25 28  2  0  0  0
 25 29  1  0  0  0
 26 54  1  0  0  0
 26 55  1  0  0  0
 26 56  1  0  0  0
 27 57  1  0  0  0
 27 58  1  0  0  0
 27 59  1  0  0  0
 28 31  1  0  0  0
 28 60  1  0  0  0
 29 32  2  0  0  0
 29 61  1  0  0  0
 30 31  2  0  0  0
 30 32  1  0  0  0
 30 33  1  0  0  0
 31 62  1  0  0  0
 32 63  1  0  0  0
 33 64  1  0  0  0
 33 65  1  0  0  0
 33 66  1  0  0  0
 67 68  1  0  0  0
 67 69  1  0  0  0
M  CHG  1  67   1
M  END
> <LID>
L023475

> <PC_CID>
11465215

> <Names>


> <CAS_Numbers>


$$$$
11465190
                    3D
 Structure written by MMmdl.
 70 73  0  0  1  0            999 V2000
    6.1245   -0.3307   -0.1979 O   0  0  0  0  0  0
   -0.7449    3.4290   -1.7085 N   0  0  0  0  0  0
    5.1480   -2.3840   -0.0581 N   0  0  0  0  0  0
   -3.5220    1.3541   -0.0635 C   0  0  0  0  0  0
   -2.3930   -0.8227   -0.3080 C   0  0  0  0  0  0
   -2.4626    1.8184    0.9480 C   0  0  0  0  0  0
   -1.3004   -0.4004    0.6895 C   0  0  0  0  0  0
   -1.1302    1.1147    0.7135 C   0  0  0  0  0  0
   -4.7843   -0.5717   -0.9332 C   0  0  0  0  0  0
    0.0514    1.7591    0.5312 C   0  0  0  0  0  0
    1.3260    1.0351    0.3801 C   0  0  0  0  0  0
    0.1298    3.2331    0.5279 C   0  0  0  0  0  0
   -5.2085   -2.0009   -0.6439 C   0  0  0  0  0  0
   -0.2650    4.0074   -0.5943 C   0  0  0  0  0  0
    2.0772    1.1602   -0.8076 C   0  0  0  0  0  0
    1.8349    0.2470    1.4353 C   0  0  0  0  0  0
    0.6537    3.8854    1.6650 C   0  0  0  0  0  0
   -4.8083   -3.0509   -1.4981 C   0  0  0  0  0  0
   -6.0099   -2.2846    0.4823 C   0  0  0  0  0  0
    3.3039    0.4839   -0.9511 C   0  0  0  0  0  0
    3.0612   -0.4300    1.2937 C   0  0  0  0  0  0
    3.7926   -0.3330    0.0899 C   0  0  0  0  0  0
   -0.1550    5.4126   -0.5528 C   0  0  0  0  0  0
    0.7629    5.2882    1.7005 C   0  0  0  0  0  0
   -5.2018   -4.3751   -1.2239 C   0  0  0  0  0  0
   -6.4032   -3.6092    0.7555 C   0  0  0  0  0  0
    0.3556    6.0525    0.5921 C   0  0  0  0  0  0
    5.1161   -1.0253   -0.0661 C   0  0  0  0  0  0
   -5.9987   -4.6546   -0.0969 C   0  0  0  0  0  0
    6.4290   -3.1019   -0.1322 C   0  0  0  0  0  0
    3.9628   -3.2574   -0.0766 C   0  0  0  0  0  0
    7.0359   -3.3058    1.2630 C   0  0  0  0  0  0
    3.3689   -3.3789   -1.4877 C   0  0  0  0  0  0
   -4.4749    1.8285    0.1745 H   0  0  0  0  0  0
   -3.2475    1.6820   -1.0676 H   0  0  0  0  0  0
   -2.0651   -0.6116   -1.3273 H   0  0  0  0  0  0
   -2.5295   -1.9018   -0.2386 H   0  0  0  0  0  0
   -2.3780    2.9034    0.9121 H   0  0  0  0  0  0
   -2.7947    1.5793    1.9590 H   0  0  0  0  0  0
   -1.5696   -0.7298    1.6937 H   0  0  0  0  0  0
   -0.3781   -0.9188    0.4328 H   0  0  0  0  0  0
   -5.6569    0.0670   -0.7874 H   0  0  0  0  0  0
   -4.4943   -0.4641   -1.9797 H   0  0  0  0  0  0
    1.7147    1.7776   -1.6163 H   0  0  0  0  0  0
    1.2843    0.1622    2.3609 H   0  0  0  0  0  0
    0.9719    3.3065    2.5199 H   0  0  0  0  0  0
   -4.1964   -2.8460   -2.3646 H   0  0  0  0  0  0
   -6.3256   -1.4885    1.1409 H   0  0  0  0  0  0
    3.8667    0.5913   -1.8673 H   0  0  0  0  0  0
    3.4387   -1.0232    2.1142 H   0  0  0  0  0  0
   -0.4586    6.0088   -1.4013 H   0  0  0  0  0  0
    1.1606    5.7773    2.5776 H   0  0  0  0  0  0
   -4.8929   -5.1770   -1.8783 H   0  0  0  0  0  0
   -7.0160   -3.8237    1.6188 H   0  0  0  0  0  0
    0.4391    7.1291    0.6176 H   0  0  0  0  0  0
   -0.8422    3.9749   -2.5528 H   0  0  0  0  0  0
   -0.6368    2.4337   -1.8391 H   0  0  0  0  0  0
   -6.3008   -5.6703    0.1127 H   0  0  0  0  0  0
    6.2925   -4.0711   -0.6140 H   0  0  0  0  0  0
    7.1382   -2.5713   -0.7698 H   0  0  0  0  0  0
    4.2323   -4.2525    0.2802 H   0  0  0  0  0  0
    3.1988   -2.9225    0.6216 H   0  0  0  0  0  0
    7.9766   -3.8530    1.1995 H   0  0  0  0  0  0
    7.2406   -2.3518    1.7499 H   0  0  0  0  0  0
    6.3640   -3.8740    1.9068 H   0  0  0  0  0  0
    2.5180   -4.0603   -1.4908 H   0  0  0  0  0  0
    3.0202   -2.4159   -1.8610 H   0  0  0  0  0  0
    4.1050   -3.7651   -2.1934 H   0  0  0  0  0  0
   -3.6794   -0.1223   -0.0494 N   0  3  2  0  0  0
   -3.9557   -0.3666    0.8909 H   0  0  0  0  0  0
  1 28  2  0  0  0
  2 14  1  0  0  0
  2 56  1  0  0  0
  2 57  1  0  0  0
  3 28  1  0  0  0
  3 30  1  0  0  0
  3 31  1  0  0  0
  4  6  1  0  0  0
  4 34  1  0  0  0
  4 35  1  0  0  0
  4 69  1  0  0  0
  5  7  1  0  0  0
  5 36  1  0  0  0
  5 37  1  0  0  0
  5 69  1  0  0  0
  6  8  1  0  0  0
  6 38  1  0  0  0
  6 39  1  0  0  0
  7  8  1  0  0  0
  7 40  1  0  0  0
  7 41  1  0  0  0
  8 10  2  0  0  0
  9 13  1  0  0  0
  9 42  1  0  0  0
  9 43  1  0  0  0
  9 69  1  0  0  0
 10 11  1  0  0  0
 10 12  1  0  0  0
 11 15  2  0  0  0
 11 16  1  0  0  0
 12 14  1  0  0  0
 12 17  2  0  0  0
 13 18  2  0  0  0
 13 19  1  0  0  0
 14 23  2  0  0  0
 15 20  1  0  0  0
 15 44  1  0  0  0
 16 21  2  0  0  0
 16 45  1  0  0  0
 17 24  1  0  0  0
 17 46  1  0  0  0
 18 25  1  0  0  0
 18 47  1  0  0  0
 19 26  2  0  0  0
 19 48  1  0  0  0
 20 22  2  0  0  0
 20 49  1  0  0  0
 21 22  1  0  0  0
 21 50  1  0  0  0
 22 28  1  0  0  0
 23 27  1  0  0  0
 23 51  1  0  0  0
 24 27  2  0  0  0
 24 52  1  0  0  0
 25 29  2  0  0  0
 25 53  1  0  0  0
 26 29  1  0  0  0
 26 54  1  0  0  0
 27 55  1  0  0  0
 29 58  1  0  0  0
 30 32  1  0  0  0
 30 59  1  0  0  0
 30 60  1  0  0  0
 31 33  1  0  0  0
 31 61  1  0  0  0
 31 62  1  0  0  0
 32 63  1  0  0  0
 32 64  1  0  0  0
 32 65  1  0  0  0
 33 66  1  0  0  0
 33 67  1  0  0  0
 33 68  1  0  0  0
 69 70  1  0  0  0
M  CHG  1  69   1
M  END
> <LID>
L023447

> <PC_CID>
11465190

> <Names>


> <CAS_Numbers>


$$$$
44216076
                    3D
 Structure written by MMmdl.
 60 64  0  0  1  0            999 V2000
   -0.3022   -0.8982   -0.4832 O   0  0  0  0  0  0
    7.8734   -2.6268   -1.8120 O   0  0  0  0  0  0
    0.1611    0.5939    1.1669 N   0  0  0  0  0  0
   -3.1755   -0.1123    0.3601 N   0  0  0  0  0  0
   -2.4210   -0.8991    2.2860 N   0  0  0  0  0  0
   -1.2183    1.1007    1.3549 C   0  0  1  0  0  0
   -1.4549    2.2973    0.4117 C   0  0  0  0  0  0
    1.1082    1.5749    1.7242 C   0  0  0  0  0  0
   -0.3082    3.2993    0.4733 C   0  0  0  0  0  0
    0.9160    2.9553    1.1028 C   0  0  0  0  0  0
   -2.2740    0.0259    1.3415 C   0  0  0  0  0  0
    0.5117   -0.3885    0.2861 C   0  0  0  0  0  0
    1.9450   -0.9582    0.2212 C   0  0  1  0  0  0
   -0.4671    4.5782   -0.0984 C   0  0  0  0  0  0
    1.9604    3.9013    1.1629 C   0  0  0  0  0  0
    2.8537   -0.1428   -0.7248 C   0  0  0  0  0  0
   -3.9767   -1.2016    0.6607 C   0  0  0  0  0  0
    0.5824    5.5150   -0.0404 C   0  0  0  0  0  0
    1.7945    5.1774    0.5913 C   0  0  0  0  0  0
   -3.4980   -1.6793    1.8612 C   0  0  0  0  0  0
    4.1916   -0.7984   -1.0158 C   0  0  0  0  0  0
   -5.0685   -1.6429   -0.2064 C   0  0  0  0  0  0
    4.2700   -1.8682   -1.9321 C   0  0  0  0  0  0
    5.3616   -0.3453   -0.3699 C   0  0  0  0  0  0
   -5.8686   -2.7466    0.1676 C   0  0  0  0  0  0
   -5.3510   -0.9869   -1.4280 C   0  0  0  0  0  0
    5.5090   -2.4825   -2.1984 C   0  0  0  0  0  0
    6.6008   -0.9595   -0.6371 C   0  0  0  0  0  0
    6.6750   -2.0290   -1.5513 C   0  0  0  0  0  0
   -6.9241   -3.1849   -0.6556 C   0  0  0  0  0  0
   -6.4059   -1.4235   -2.2529 C   0  0  0  0  0  0
   -7.1939   -2.5233   -1.8674 C   0  0  0  0  0  0
   -1.2719    1.5036    2.3685 H   0  0  0  0  0  0
   -2.3899    2.7987    0.6653 H   0  0  0  0  0  0
   -1.5438    1.9553   -0.6202 H   0  0  0  0  0  0
    2.1535    1.3053    1.6139 H   0  0  0  0  0  0
    0.9479    1.6558    2.8003 H   0  0  0  0  0  0
    1.8505   -1.9571   -0.2084 H   0  0  0  0  0  0
   -1.3958    4.8450   -0.5815 H   0  0  0  0  0  0
    2.8938    3.6516    1.6458 H   0  0  0  0  0  0
   -3.2506    0.4667   -0.4632 H   0  0  0  0  0  0
    2.3462    0.0020   -1.6802 H   0  0  0  0  0  0
    3.0323    0.8613   -0.3417 H   0  0  0  0  0  0
    0.4566    6.4942   -0.4785 H   0  0  0  0  0  0
    2.5975    5.8982    0.6375 H   0  0  0  0  0  0
   -3.8386   -2.5184    2.4494 H   0  0  0  0  0  0
    2.6758   -0.2929    2.0228 H   0  0  0  0  0  0
    1.9568   -1.7750    2.0993 H   0  0  0  0  0  0
    3.3806   -2.2219   -2.4332 H   0  0  0  0  0  0
    5.3152    0.4749    0.3317 H   0  0  0  0  0  0
   -5.6794   -3.2690    1.0937 H   0  0  0  0  0  0
   -4.7617   -0.1408   -1.7485 H   0  0  0  0  0  0
    5.5635   -3.3016   -2.9007 H   0  0  0  0  0  0
    7.4917   -0.6061   -0.1388 H   0  0  0  0  0  0
   -7.5269   -4.0296   -0.3563 H   0  0  0  0  0  0
   -6.6102   -0.9135   -3.1828 H   0  0  0  0  0  0
   -8.0029   -2.8585   -2.4995 H   0  0  0  0  0  0
    8.5943   -2.2437   -1.3362 H   0  0  0  0  0  0
    2.5557   -1.1758    1.5488 N   0  3  0  0  0  0
    3.4561   -1.6189    1.4309 H   0  0  0  0  0  0
  1 12  2  0  0  0
  2 29  1  0  0  0
  2 58  1  0  0  0
  3  6  1  0  0  0
  3  8  1  0  0  0
  3 12  1  0  0  0
  4 11  1  0  0  0
  4 17  1  0  0  0
  4 41  1  0  0  0
  5 11  2  0  0  0
  5 20  1  0  0  0
  6  7  1  0  0  0
  6 11  1  0  0  0
  6 33  1  0  0  0
  7  9  1  0  0  0
  7 34  1  0  0  0
  7 35  1  0  0  0
  8 10  1  0  0  0
  8 36  1  0  0  0
  8 37  1  0  0  0
  9 10  1  0  0  0
  9 14  2  0  0  0
 10 15  2  0  0  0
 12 13  1  0  0  0
 13 16  1  0  0  0
 13 38  1  0  0  0
 13 59  1  0  0  0
 14 18  1  0  0  0
 14 39  1  0  0  0
 15 19  1  0  0  0
 15 40  1  0  0  0
 16 21  1  0  0  0
 16 42  1  0  0  0
 16 43  1  0  0  0
 17 20  2  0  0  0
 17 22  1  0  0  0
 18 19  2  0  0  0
 18 44  1  0  0  0
 19 45  1  0  0  0
 20 46  1  0  0  0
 21 23  2  0  0  0
 21 24  1  0  0  0
 22 25  2  0  0  0
 22 26  1  0  0  0
 23 27  1  0  0  0
 23 49  1  0  0  0
 24 28  2  0  0  0
 24 50  1  0  0  0
 25 30  1  0  0  0
 25 51  1  0  0  0
 26 31  2  0  0  0
 26 52  1  0  0  0
 27 29  2  0  0  0
 27 53  1  0  0  0
 28 29  1  0  0  0
 28 54  1  0  0  0
 30 32  2  0  0  0
 30 55  1  0  0  0
 31 32  1  0  0  0
 31 56  1  0  0  0
 32 57  1  0  0  0
 47 59  1  0  0  0
 48 59  1  0  0  0
 59 60  1  0  0  0
M  CHG  1  59   1
M  END
> <LID>
L023217

> <PC_CID>
44216076

> <Names>


> <CAS_Numbers>
422573-71-5

$$$$
9850289
                    3D
 Structure written by MMmdl.
 80 84  0  0  1  0            999 V2000
   -3.9595   -1.7951   -0.5918 O   0  0  0  0  0  0
    1.9325   -1.7792    2.3125 O   0  0  0  0  0  0
    0.7731    3.3291    0.8633 O   0  0  0  0  0  0
    0.3844    2.6294    2.9924 O   0  0  0  0  0  0
    2.8405   -0.4064   -0.3396 N   0  0  0  0  0  0
    4.4290    0.2923    1.1494 N   0  0  0  0  0  0
    1.6057   -0.9238   -0.9439 C   0  0  0  0  0  0
    1.5567   -2.4595   -0.9866 C   0  0  0  0  0  0
    0.2951   -0.3657   -0.3665 C   0  0  0  0  0  0
    0.3082   -2.9423   -1.7486 C   0  0  0  0  0  0
   -0.9112   -0.8874   -1.1608 C   0  0  0  0  0  0
   -2.1674   -2.9224   -1.8032 C   0  0  0  0  0  0
    3.9758   -0.0748   -1.0823 C   0  0  0  0  0  0
    3.1989   -0.1873    0.9620 C   0  0  0  0  0  0
    4.9342    0.3659   -0.1286 C   0  0  0  0  0  0
   -3.3339   -3.0538   -0.8097 C   0  0  0  0  0  0
    2.3206   -0.4316    2.1542 C   0  0  0  0  0  0
    4.2775   -0.0976   -2.4592 C   0  0  0  0  0  0
    6.1991    0.7962   -0.5878 C   0  0  0  0  0  0
    5.5447    0.3328   -2.8974 C   0  0  0  0  0  0
    6.5014    0.7805   -1.9645 C   0  0  0  0  0  0
   -5.0313   -1.7392    0.2787 C   0  0  0  0  0  0
   -5.6326   -0.4769    0.5111 C   0  0  0  0  0  0
   -5.5546   -2.8758    0.9494 C   0  0  0  0  0  0
   -5.1118    0.7765   -0.1800 C   0  0  0  0  0  0
   -6.7282   -0.3627    1.3938 C   0  0  0  0  0  0
   -6.6471   -2.7535    1.8283 C   0  0  0  0  0  0
   -3.7983    1.3177    0.3700 C   0  0  0  0  0  0
   -7.2348   -1.4969    2.0518 C   0  0  0  0  0  0
   -2.9814    2.1083   -0.4631 C   0  0  0  0  0  0
   -3.3810    1.0563    1.6938 C   0  0  0  0  0  0
   -1.3134    2.3186    1.3211 C   0  0  0  0  0  0
   -1.7508    2.6062    0.0056 C   0  0  0  0  0  0
   -2.1485    1.5500    2.1625 C   0  0  0  0  0  0
    2.7112    4.4374   -0.0737 C   0  0  0  0  0  0
    2.1070    3.7218    1.1453 C   0  0  0  0  0  0
    0.0115    2.7780    1.8271 C   0  0  0  0  0  0
    4.0918    5.0142    0.2685 C   0  0  0  0  0  0
    2.7994    3.5129   -1.2979 C   0  0  0  0  0  0
    1.6204   -0.5865   -1.9808 H   0  0  0  0  0  0
    1.5489   -2.8740    0.0200 H   0  0  0  0  0  0
    2.4531   -2.8486   -1.4712 H   0  0  0  0  0  0
    0.3192    0.7224   -0.3922 H   0  0  0  0  0  0
    0.1476   -0.6667    0.6667 H   0  0  0  0  0  0
    0.2713   -4.0317   -1.7103 H   0  0  0  0  0  0
    0.3792   -2.6648   -2.8017 H   0  0  0  0  0  0
   -1.8226   -0.5036   -0.7075 H   0  0  0  0  0  0
   -0.8836   -0.5094   -2.1840 H   0  0  0  0  0  0
   -2.4545   -2.3405   -2.6803 H   0  0  0  0  0  0
   -1.9527   -3.9273   -2.1694 H   0  0  0  0  0  0
   -4.0691   -3.7411   -1.2314 H   0  0  0  0  0  0
   -2.9767   -3.4827    0.1282 H   0  0  0  0  0  0
    2.8622   -0.1428    3.0560 H   0  0  0  0  0  0
    1.4527    0.2220    2.1176 H   0  0  0  0  0  0
    3.5487   -0.4369   -3.1794 H   0  0  0  0  0  0
    6.9376    1.1373    0.1224 H   0  0  0  0  0  0
    5.7840    0.3215   -3.9509 H   0  0  0  0  0  0
    7.4716    1.1108   -2.3059 H   0  0  0  0  0  0
    1.4552   -1.8590    3.1244 H   0  0  0  0  0  0
   -5.1378   -3.8611    0.8096 H   0  0  0  0  0  0
   -4.9932    0.5594   -1.2425 H   0  0  0  0  0  0
   -5.8585    1.5689   -0.1171 H   0  0  0  0  0  0
   -7.1843    0.6001    1.5727 H   0  0  0  0  0  0
   -7.0348   -3.6268    2.3321 H   0  0  0  0  0  0
   -8.0728   -1.4027    2.7268 H   0  0  0  0  0  0
   -3.2920    2.3280   -1.4742 H   0  0  0  0  0  0
   -3.9935    0.4674    2.3603 H   0  0  0  0  0  0
   -1.1467    3.1965   -0.6680 H   0  0  0  0  0  0
   -1.8457    1.3186    3.1738 H   0  0  0  0  0  0
    2.0585    5.2733   -0.3294 H   0  0  0  0  0  0
    2.1133    4.3913    2.0069 H   0  0  0  0  0  0
    2.7027    2.8461    1.4074 H   0  0  0  0  0  0
    4.5109    5.5605   -0.5769 H   0  0  0  0  0  0
    4.0320    5.7058    1.1094 H   0  0  0  0  0  0
    4.7949    4.2243    0.5361 H   0  0  0  0  0  0
    3.1857    4.0472   -2.1662 H   0  0  0  0  0  0
    3.4648    2.6732   -1.1060 H   0  0  0  0  0  0
    1.8235    3.1099   -1.5697 H   0  0  0  0  0  0
   -0.9394   -2.3738   -1.1704 N   0  3  0  0  0  0
   -0.9565   -2.6731   -0.2056 H   0  0  0  0  0  0
  1 16  1  0  0  0
  1 22  1  0  0  0
  2 17  1  0  0  0
  2 59  1  0  0  0
  3 36  1  0  0  0
  3 37  1  0  0  0
  4 37  2  0  0  0
  5  7  1  0  0  0
  5 13  1  0  0  0
  5 14  1  0  0  0
  6 14  2  0  0  0
  6 15  1  0  0  0
  7  8  1  0  0  0
  7  9  1  0  0  0
  7 40  1  0  0  0
  8 10  1  0  0  0
  8 41  1  0  0  0
  8 42  1  0  0  0
  9 11  1  0  0  0
  9 43  1  0  0  0
  9 44  1  0  0  0
 10 45  1  0  0  0
 10 46  1  0  0  0
 10 79  1  0  0  0
 11 47  1  0  0  0
 11 48  1  0  0  0
 11 79  1  0  0  0
 12 16  1  0  0  0
 12 49  1  0  0  0
 12 50  1  0  0  0
 12 79  1  0  0  0
 13 15  1  0  0  0
 13 18  2  0  0  0
 14 17  1  0  0  0
 15 19  2  0  0  0
 16 51  1  0  0  0
 16 52  1  0  0  0
 17 53  1  0  0  0
 17 54  1  0  0  0
 18 20  1  0  0  0
 18 55  1  0  0  0
 19 21  1  0  0  0
 19 56  1  0  0  0
 20 21  2  0  0  0
 20 57  1  0  0  0
 21 58  1  0  0  0
 22 23  1  0  0  0
 22 24  2  0  0  0
 23 25  1  0  0  0
 23 26  2  0  0  0
 24 27  1  0  0  0
 24 60  1  0  0  0
 25 28  1  0  0  0
 25 61  1  0  0  0
 25 62  1  0  0  0
 26 29  1  0  0  0
 26 63  1  0  0  0
 27 29  2  0  0  0
 27 64  1  0  0  0
 28 30  2  0  0  0
 28 31  1  0  0  0
 29 65  1  0  0  0
 30 33  1  0  0  0
 30 66  1  0  0  0
 31 34  2  0  0  0
 31 67  1  0  0  0
 32 33  2  0  0  0
 32 34  1  0  0  0
 32 37  1  0  0  0
 33 68  1  0  0  0
 34 69  1  0  0  0
 35 36  1  0  0  0
 35 38  1  0  0  0
 35 39  1  0  0  0
 35 70  1  0  0  0
 36 71  1  0  0  0
 36 72  1  0  0  0
 38 73  1  0  0  0
 38 74  1  0  0  0
 38 75  1  0  0  0
 39 76  1  0  0  0
 39 77  1  0  0  0
 39 78  1  0  0  0
 79 80  1  0  0  0
M  CHG  1  79   1
M  END
> <LID>
L020692

> <PC_CID>
9850289

> <Names>


> <CAS_Numbers>


$$$$
21184571
                    3D
 Structure written by MMmdl.
 61 62  0  0  1  0            999 V2000
   -4.1465    1.9169   -1.4742 O   0  0  0  0  0  0
    4.4987   -3.5529   -2.0013 O   0  0  0  0  0  0
   -4.5184    0.1028   -0.1204 N   0  0  0  0  0  0
   -5.9609    0.0428   -0.5093 C   0  0  0  0  0  0
   -4.0030   -0.7674    0.9818 C   0  0  0  0  0  0
   -3.7163    0.9999   -0.7728 C   0  0  0  0  0  0
   -6.2219   -1.0401   -1.5726 C   0  0  0  0  0  0
   -6.9692   -0.0122    0.6524 C   0  0  0  0  0  0
   -4.3126   -0.2117    2.3849 C   0  0  0  0  0  0
   -4.3440   -2.2601    0.8271 C   0  0  0  0  0  0
   -2.2227    0.8514   -0.6993 C   0  0  0  0  0  0
    0.6110    0.6175   -0.6269 C   0  0  0  0  0  0
   -1.4326    1.9117   -0.2110 C   0  0  0  0  0  0
   -1.5899   -0.3150   -1.1810 C   0  0  0  0  0  0
    2.0848    0.4815   -0.5980 C   0  0  0  0  0  0
   -0.0300    1.7931   -0.1702 C   0  0  0  0  0  0
   -0.1876   -0.4314   -1.1376 C   0  0  0  0  0  0
    2.6612   -0.8414   -0.3021 C   0  0  0  0  0  0
    2.8763    1.5555   -0.8180 C   0  0  0  0  0  0
    4.3983    1.6002   -0.7873 C   0  0  0  0  0  0
    3.3227   -1.5798   -1.3077 C   0  0  0  0  0  0
    2.5166   -1.4020    0.9848 C   0  0  0  0  0  0
    3.8541   -2.8529   -1.0237 C   0  0  0  0  0  0
    6.3296    2.0978    0.6483 C   0  0  0  0  0  0
    4.6111    3.8122    0.3183 C   0  0  0  0  0  0
    3.0464   -2.6754    1.2699 C   0  0  0  0  0  0
    3.7176   -3.4006    0.2669 C   0  0  0  0  0  0
   -6.2407    0.9754   -1.0000 H   0  0  0  0  0  0
   -2.9174   -0.7769    0.9757 H   0  0  0  0  0  0
   -7.2265   -0.9397   -1.9843 H   0  0  0  0  0  0
   -5.5217   -0.9532   -2.4040 H   0  0  0  0  0  0
   -6.1427   -2.0492   -1.1737 H   0  0  0  0  0  0
   -7.9861    0.0991    0.2751 H   0  0  0  0  0  0
   -6.9447   -0.9530    1.1974 H   0  0  0  0  0  0
   -6.8048    0.8043    1.3557 H   0  0  0  0  0  0
   -3.6808   -0.6936    3.1316 H   0  0  0  0  0  0
   -4.1153    0.8594    2.4384 H   0  0  0  0  0  0
   -5.3398   -0.3836    2.6976 H   0  0  0  0  0  0
   -3.8032   -2.8526    1.5655 H   0  0  0  0  0  0
   -5.4009   -2.4739    0.9688 H   0  0  0  0  0  0
   -4.0496   -2.6287   -0.1558 H   0  0  0  0  0  0
   -1.9005    2.8199    0.1413 H   0  0  0  0  0  0
   -2.1789   -1.1269   -1.5831 H   0  0  0  0  0  0
    0.5466    2.6151    0.2273 H   0  0  0  0  0  0
    0.2714   -1.3356   -1.5099 H   0  0  0  0  0  0
    2.4111    2.5035   -1.0436 H   0  0  0  0  0  0
    4.8089    0.5923   -0.7549 H   0  0  0  0  0  0
    4.7643    2.0495   -1.7115 H   0  0  0  0  0  0
    3.4240   -1.1671   -2.3012 H   0  0  0  0  0  0
    1.9980   -0.8543    1.7584 H   0  0  0  0  0  0
    6.6589    2.6128    1.5516 H   0  0  0  0  0  0
    6.5095    1.0321    0.7949 H   0  0  0  0  0  0
    6.9476    2.4381   -0.1838 H   0  0  0  0  0  0
    4.9867    4.3195    1.2077 H   0  0  0  0  0  0
    5.0855    4.2636   -0.5542 H   0  0  0  0  0  0
    3.5405    4.0085    0.2661 H   0  0  0  0  0  0
    2.9355   -3.0971    2.2580 H   0  0  0  0  0  0
    4.1215   -4.3771    0.4913 H   0  0  0  0  0  0
    4.8077   -4.3983   -1.7135 H   0  0  0  0  0  0
    4.8967    2.3596    0.3867 N   0  3  0  0  0  0
    4.3978    2.0022    1.1894 H   0  0  0  0  0  0
  1  6  2  0  0  0
  2 23  1  0  0  0
  2 59  1  0  0  0
  3  4  1  0  0  0
  3  5  1  0  0  0
  3  6  1  0  0  0
  4  7  1  0  0  0
  4  8  1  0  0  0
  4 28  1  0  0  0
  5  9  1  0  0  0
  5 10  1  0  0  0
  5 29  1  0  0  0
  6 11  1  0  0  0
  7 30  1  0  0  0
  7 31  1  0  0  0
  7 32  1  0  0  0
  8 33  1  0  0  0
  8 34  1  0  0  0
  8 35  1  0  0  0
  9 36  1  0  0  0
  9 37  1  0  0  0
  9 38  1  0  0  0
 10 39  1  0  0  0
 10 40  1  0  0  0
 10 41  1  0  0  0
 11 13  2  0  0  0
 11 14  1  0  0  0
 12 15  1  0  0  0
 12 16  2  0  0  0
 12 17  1  0  0  0
 13 16  1  0  0  0
 13 42  1  0  0  0
 14 17  2  0  0  0
 14 43  1  0  0  0
 15 18  1  0  0  0
 15 19  2  0  0  0
 16 44  1  0  0  0
 17 45  1  0  0  0
 18 21  2  0  0  0
 18 22  1  0  0  0
 19 20  1  0  0  0
 19 46  1  0  0  0
 20 47  1  0  0  0
 20 48  1  0  0  0
 20 60  1  0  0  0
 21 23  1  0  0  0
 21 49  1  0  0  0
 22 26  2  0  0  0
 22 50  1  0  0  0
 23 27  2  0  0  0
 24 51  1  0  0  0
 24 52  1  0  0  0
 24 53  1  0  0  0
 24 60  1  0  0  0
 25 54  1  0  0  0
 25 55  1  0  0  0
 25 56  1  0  0  0
 25 60  1  0  0  0
 26 27  1  0  0  0
 26 57  1  0  0  0
 27 58  1  0  0  0
 60 61  1  0  0  0
M  CHG  1  60   1
M  END
> <LID>
L016385

> <PC_CID>
21184571

> <Names>


> <CAS_Numbers>


$$$$
18936231
                    3D
 Structure written by MMmdl.
 73 77  0  0  1  0            999 V2000
   -6.0087    2.0088    0.8924 O   0  0  0  0  0  0
    2.3160   -4.7085    1.0862 O   0  0  0  0  0  0
    5.1590    0.8447    1.3531 O   0  0  0  0  0  0
    2.2361    0.6559    1.1390 N   0  0  0  0  0  0
    4.8538    2.7838    0.2079 N   0  0  0  0  0  0
   -1.0539   -1.1217    0.2961 C   0  0  2  0  0  0
   -1.1390   -0.4221   -1.1111 C   0  0  2  0  0  0
   -2.4817   -1.1777    0.9093 C   0  0  0  0  0  0
   -0.1255   -0.2845    1.2431 C   0  0  0  0  0  0
    0.2462   -0.2293   -1.7926 C   0  0  0  0  0  0
   -1.9099    0.9158   -1.0442 C   0  0  0  0  0  0
   -3.2383    0.1639    0.8810 C   0  0  0  0  0  0
    1.0985    0.1821    0.5345 C   0  0  0  0  0  0
    1.2941    0.2268   -0.8117 C   0  0  0  0  0  0
   -0.5336   -2.5704    0.0923 C   0  0  0  0  0  0
    2.6109    0.7327   -1.0525 C   0  0  0  0  0  0
   -4.0848    1.9754   -0.5861 C   0  0  0  0  0  0
    3.1540    1.0225    0.1786 C   0  0  0  0  0  0
    0.6710   -3.0443    0.6751 C   0  0  0  0  0  0
   -1.2670   -3.4725   -0.7170 C   0  0  0  0  0  0
    3.2592    0.8848   -2.4059 C   0  0  0  0  0  0
   -5.5400    1.7273   -0.3562 C   0  0  0  0  0  0
    1.1323   -4.3609    0.4713 C   0  0  0  0  0  0
   -0.8219   -4.7893   -0.9290 C   0  0  0  0  0  0
    4.4674    1.5467    0.6142 C   0  0  0  0  0  0
    0.3718   -5.2368   -0.3385 C   0  0  0  0  0  0
   -6.5521    1.2623   -1.1499 C   0  0  0  0  0  0
   -7.7219    1.2507   -0.3410 C   0  0  0  0  0  0
    6.1956    3.2946    0.5241 C   0  0  0  0  0  0
    3.9734    3.7597   -0.4540 C   0  0  0  0  0  0
   -7.3368    1.7123    0.8854 C   0  0  0  0  0  0
    2.8096   -6.0260    0.8926 C   0  0  0  0  0  0
    7.2189    2.8612   -0.5347 C   0  0  0  0  0  0
    3.0778    4.4883    0.5584 C   0  0  0  0  0  0
   -1.7289   -1.0429   -1.7856 H   0  0  0  0  0  0
   -2.4325   -1.5543    1.9318 H   0  0  0  0  0  0
   -3.1021   -1.8906    0.3676 H   0  0  0  0  0  0
    0.1161   -0.8217    2.1603 H   0  0  0  0  0  0
   -0.6368    0.6124    1.5854 H   0  0  0  0  0  0
    0.5848   -1.1782   -2.2100 H   0  0  0  0  0  0
    0.1869    0.4715   -2.6259 H   0  0  0  0  0  0
   -1.9899    1.3281   -2.0511 H   0  0  0  0  0  0
   -1.3657    1.6532   -0.4523 H   0  0  0  0  0  0
   -2.8005    0.8843    1.5717 H   0  0  0  0  0  0
   -4.2538   -0.0118    1.2363 H   0  0  0  0  0  0
    2.3834    0.7307    2.1356 H   0  0  0  0  0  0
   -3.9657    2.4098   -1.5795 H   0  0  0  0  0  0
   -3.7092    2.7178    0.1199 H   0  0  0  0  0  0
    1.2886   -2.4110    1.2910 H   0  0  0  0  0  0
   -2.1859   -3.1665   -1.1932 H   0  0  0  0  0  0
    3.1937   -0.0517   -2.9599 H   0  0  0  0  0  0
    2.7539    1.6599   -2.9820 H   0  0  0  0  0  0
    4.3120    1.1522   -2.3145 H   0  0  0  0  0  0
   -1.3987   -5.4591   -1.5497 H   0  0  0  0  0  0
    0.6831   -6.2534   -0.5240 H   0  0  0  0  0  0
   -6.4630    0.9661   -2.1848 H   0  0  0  0  0  0
   -8.7193    0.9451   -0.6210 H   0  0  0  0  0  0
    6.1812    4.3835    0.5896 H   0  0  0  0  0  0
    6.5194    2.9598    1.5110 H   0  0  0  0  0  0
    4.5740    4.4931   -0.9939 H   0  0  0  0  0  0
    3.3565    3.2986   -1.2208 H   0  0  0  0  0  0
   -7.8536    1.8851    1.8181 H   0  0  0  0  0  0
    3.7468   -6.1423    1.4366 H   0  0  0  0  0  0
    2.1124   -6.7732    1.2741 H   0  0  0  0  0  0
    3.0131   -6.2249   -0.1604 H   0  0  0  0  0  0
    8.2073    3.2585   -0.3033 H   0  0  0  0  0  0
    7.3023    1.7751   -0.5847 H   0  0  0  0  0  0
    6.9391    3.2221   -1.5248 H   0  0  0  0  0  0
    2.4572    5.2325    0.0592 H   0  0  0  0  0  0
    2.4115    3.7955    1.0730 H   0  0  0  0  0  0
    3.6726    5.0046    1.3125 H   0  0  0  0  0  0
   -3.2743    0.7357   -0.4893 N   0  3  1  0  0  0
   -3.7330    0.0543   -1.0772 H   0  0  0  0  0  0
  1 22  1  0  0  0
  1 31  1  0  0  0
  2 23  1  0  0  0
  2 32  1  0  0  0
  3 25  2  0  0  0
  4 13  1  0  0  0
  4 18  1  0  0  0
  4 46  1  0  0  0
  5 25  1  0  0  0
  5 29  1  0  0  0
  5 30  1  0  0  0
  6  7  1  0  0  0
  6  8  1  0  0  0
  6  9  1  0  0  0
  6 15  1  0  0  0
  7 10  1  0  0  0
  7 11  1  0  0  0
  7 35  1  0  0  0
  8 12  1  0  0  0
  8 36  1  0  0  0
  8 37  1  0  0  0
  9 13  1  0  0  0
  9 38  1  0  0  0
  9 39  1  0  0  0
 10 14  1  0  0  0
 10 40  1  0  0  0
 10 41  1  0  0  0
 11 42  1  0  0  0
 11 43  1  0  0  0
 11 72  1  0  0  0
 12 44  1  0  0  0
 12 45  1  0  0  0
 12 72  1  0  0  0
 13 14  2  0  0  0
 14 16  1  0  0  0
 15 19  2  0  0  0
 15 20  1  0  0  0
 16 18  2  0  0  0
 16 21  1  0  0  0
 17 22  1  0  0  0
 17 47  1  0  0  0
 17 48  1  0  0  0
 17 72  1  0  0  0
 18 25  1  0  0  0
 19 23  1  0  0  0
 19 49  1  0  0  0
 20 24  2  0  0  0
 20 50  1  0  0  0
 21 51  1  0  0  0
 21 52  1  0  0  0
 21 53  1  0  0  0
 22 27  2  0  0  0
 23 26  2  0  0  0
 24 26  1  0  0  0
 24 54  1  0  0  0
 26 55  1  0  0  0
 27 28  1  0  0  0
 27 56  1  0  0  0
 28 31  2  0  0  0
 28 57  1  0  0  0
 29 33  1  0  0  0
 29 58  1  0  0  0
 29 59  1  0  0  0
 30 34  1  0  0  0
 30 60  1  0  0  0
 30 61  1  0  0  0
 31 62  1  0  0  0
 32 63  1  0  0  0
 32 64  1  0  0  0
 32 65  1  0  0  0
 33 66  1  0  0  0
 33 67  1  0  0  0
 33 68  1  0  0  0
 34 69  1  0  0  0
 34 70  1  0  0  0
 34 71  1  0  0  0
 72 73  1  0  0  0
M  CHG  1  72   1
M  END
> <LID>
L012496

> <PC_CID>
18936231

> <Names>


> <CAS_Numbers>


$$$$
10297282
                    3D
 Structure written by MMmdl.
 66 69  0  0  1  0            999 V2000
   -2.3183    4.7669   -2.0682 O   0  0  0  0  0  0
    6.1596    0.7321   -0.2299 O   0  0  0  0  0  0
   -6.5900   -2.4343   -0.9723 N   0  0  0  0  0  0
   -5.6047   -3.1546    0.8765 N   0  0  0  0  0  0
    5.8123   -1.4970    0.0862 N   0  0  0  0  0  0
   -1.8130   -2.1781   -0.4030 C   0  0  0  0  0  0
   -3.5397   -0.4209   -0.3009 C   0  0  0  0  0  0
   -0.9361   -1.4143    0.6045 C   0  0  0  0  0  0
   -2.7061    0.3704    0.7187 C   0  0  0  0  0  0
   -1.2174    0.0839    0.5519 C   0  0  0  0  0  0
   -4.1199   -2.7013   -1.1004 C   0  0  0  0  0  0
   -0.2672    1.0370    0.3682 C   0  0  0  0  0  0
    1.1631    0.7002    0.2695 C   0  0  0  0  0  0
   -0.6091    2.4649    0.2553 C   0  0  0  0  0  0
   -5.4342   -2.7682   -0.3855 C   0  0  0  0  0  0
    1.8649    0.9384   -0.9309 C   0  0  0  0  0  0
    1.8588    0.1817    1.3830 C   0  0  0  0  0  0
   -1.3185    2.9463   -0.8671 C   0  0  0  0  0  0
   -0.1881    3.3751    1.2482 C   0  0  0  0  0  0
    3.9224    0.0820    0.0747 C   0  0  0  0  0  0
    3.2365    0.6349   -1.0272 C   0  0  0  0  0  0
    3.2302   -0.1224    1.2883 C   0  0  0  0  0  0
   -1.6245    4.3161   -0.9834 C   0  0  0  0  0  0
   -7.6016   -2.6043   -0.0434 C   0  0  0  0  0  0
   -0.4922    4.7455    1.1327 C   0  0  0  0  0  0
   -6.9790   -3.0521    1.0990 C   0  0  0  0  0  0
    5.3913   -0.2103   -0.0336 C   0  0  0  0  0  0
   -1.2127    5.2166    0.0184 C   0  0  0  0  0  0
    7.2466   -1.8194    0.0617 C   0  0  0  0  0  0
    4.9285   -2.6730    0.1495 C   0  0  0  0  0  0
    7.8637   -1.7259    1.4641 C   0  0  0  0  0  0
    4.4174   -3.0747   -1.2419 C   0  0  0  0  0  0
   -1.6419   -3.2490   -0.2857 H   0  0  0  0  0  0
   -1.5193   -1.9203   -1.4220 H   0  0  0  0  0  0
   -3.3257   -0.0654   -1.3102 H   0  0  0  0  0  0
   -4.5976   -0.2294   -0.1183 H   0  0  0  0  0  0
    0.1080   -1.6508    0.4063 H   0  0  0  0  0  0
   -1.1437   -1.7655    1.6161 H   0  0  0  0  0  0
   -2.9925    0.0733    1.7284 H   0  0  0  0  0  0
   -2.9452    1.4298    0.6466 H   0  0  0  0  0  0
   -4.2243   -2.2620   -2.0937 H   0  0  0  0  0  0
   -3.7341   -3.7158   -1.2090 H   0  0  0  0  0  0
    1.3508    1.3558   -1.7846 H   0  0  0  0  0  0
    1.3398    0.0179    2.3163 H   0  0  0  0  0  0
   -1.6309    2.2608   -1.6415 H   0  0  0  0  0  0
    0.3689    3.0227    2.1043 H   0  0  0  0  0  0
   -6.7072   -2.1174   -1.9245 H   0  0  0  0  0  0
    3.7595    0.8237   -1.9538 H   0  0  0  0  0  0
    3.7489   -0.5124    2.1523 H   0  0  0  0  0  0
   -8.6397   -2.4026   -0.2638 H   0  0  0  0  0  0
   -0.1708    5.4358    1.8987 H   0  0  0  0  0  0
   -7.4091   -3.3069    2.0566 H   0  0  0  0  0  0
   -1.4428    6.2688   -0.0647 H   0  0  0  0  0  0
    7.4022   -2.8227   -0.3375 H   0  0  0  0  0  0
    7.7836   -1.1609   -0.6231 H   0  0  0  0  0  0
    5.4668   -3.5159    0.5851 H   0  0  0  0  0  0
    4.0893   -2.5163    0.8238 H   0  0  0  0  0  0
    8.9228   -1.9826    1.4385 H   0  0  0  0  0  0
    7.7776   -0.7171    1.8690 H   0  0  0  0  0  0
    7.3730   -2.4092    2.1578 H   0  0  0  0  0  0
    3.7985   -3.9700   -1.1819 H   0  0  0  0  0  0
    3.8126   -2.2866   -1.6907 H   0  0  0  0  0  0
    5.2447   -3.2889   -1.9191 H   0  0  0  0  0  0
   -2.4652    5.7003   -2.0549 H   0  0  0  0  0  0
   -3.2552   -1.8789   -0.2165 N   0  3  1  0  0  0
   -3.4855   -2.1667    0.7251 H   0  0  0  0  0  0
  1 23  1  0  0  0
  1 64  1  0  0  0
  2 27  2  0  0  0
  3 15  1  0  0  0
  3 24  1  0  0  0
  3 47  1  0  0  0
  4 15  2  0  0  0
  4 26  1  0  0  0
  5 27  1  0  0  0
  5 29  1  0  0  0
  5 30  1  0  0  0
  6  8  1  0  0  0
  6 33  1  0  0  0
  6 34  1  0  0  0
  6 65  1  0  0  0
  7  9  1  0  0  0
  7 35  1  0  0  0
  7 36  1  0  0  0
  7 65  1  0  0  0
  8 10  1  0  0  0
  8 37  1  0  0  0
  8 38  1  0  0  0
  9 10  1  0  0  0
  9 39  1  0  0  0
  9 40  1  0  0  0
 10 12  2  0  0  0
 11 15  1  0  0  0
 11 41  1  0  0  0
 11 42  1  0  0  0
 11 65  1  0  0  0
 12 13  1  0  0  0
 12 14  1  0  0  0
 13 16  2  0  0  0
 13 17  1  0  0  0
 14 18  2  0  0  0
 14 19  1  0  0  0
 16 21  1  0  0  0
 16 43  1  0  0  0
 17 22  2  0  0  0
 17 44  1  0  0  0
 18 23  1  0  0  0
 18 45  1  0  0  0
 19 25  2  0  0  0
 19 46  1  0  0  0
 20 21  2  0  0  0
 20 22  1  0  0  0
 20 27  1  0  0  0
 21 48  1  0  0  0
 22 49  1  0  0  0
 23 28  2  0  0  0
 24 26  2  0  0  0
 24 50  1  0  0  0
 25 28  1  0  0  0
 25 51  1  0  0  0
 26 52  1  0  0  0
 28 53  1  0  0  0
 29 31  1  0  0  0
 29 54  1  0  0  0
 29 55  1  0  0  0
 30 32  1  0  0  0
 30 56  1  0  0  0
 30 57  1  0  0  0
 31 58  1  0  0  0
 31 59  1  0  0  0
 31 60  1  0  0  0
 32 61  1  0  0  0
 32 62  1  0  0  0
 32 63  1  0  0  0
 65 66  1  0  0  0
M  CHG  1  65   1
M  END
> <LID>
L020874

> <PC_CID>
10297282

> <Names>


> <CAS_Numbers>


$$$$
10297281
                    3D
 Structure written by MMmdl.
 66 69  0  0  1  0            999 V2000
   -1.7416   -5.6027   -1.8702 O   0  0  0  0  0  0
    5.8574   -0.0260   -0.0990 O   0  0  0  0  0  0
   -4.7204    3.8506   -1.4949 N   0  0  0  0  0  0
   -5.8049    4.8085    0.1932 N   0  0  0  0  0  0
    5.0685    2.1048    0.0644 N   0  0  0  0  0  0
   -3.8980   -0.7118   -0.1488 C   0  0  0  0  0  0
   -2.5309    1.3357   -0.2870 C   0  0  0  0  0  0
   -2.9237   -1.3204    0.8718 C   0  0  0  0  0  0
   -1.5204    0.7612    0.7211 C   0  0  0  0  0  0
   -1.5163   -0.7634    0.6872 C   0  0  0  0  0  0
   -4.9142    1.3705   -0.9836 C   0  0  0  0  0  0
   -0.4061   -1.5245    0.5047 C   0  0  0  0  0  0
    0.9360   -0.9287    0.3897 C   0  0  0  0  0  0
   -5.1637    2.8146   -0.6881 C   0  0  0  0  0  0
   -0.4766   -2.9925    0.4114 C   0  0  0  0  0  0
    1.6657   -1.0547   -0.8111 C   0  0  0  0  0  0
    1.5275   -0.2696    1.4891 C   0  0  0  0  0  0
   -1.0910   -3.6122   -0.6991 C   0  0  0  0  0  0
    0.1131   -3.7953    1.4110 C   0  0  0  0  0  0
   -5.8399    3.4215    0.3487 C   0  0  0  0  0  0
    3.5325    0.1841    0.1665 C   0  0  0  0  0  0
    2.9570   -0.5041   -0.9220 C   0  0  0  0  0  0
    2.8181    0.2822    1.3796 C   0  0  0  0  0  0
   -5.1217    4.9924   -0.9298 C   0  0  0  0  0  0
   -1.1371   -5.0165   -0.7968 C   0  0  0  0  0  0
    0.0691   -5.1997    1.3141 C   0  0  0  0  0  0
    4.9149    0.7546    0.0391 C   0  0  0  0  0  0
   -0.5581   -5.8113    0.2117 C   0  0  0  0  0  0
    6.4081    2.7023   -0.0419 C   0  0  0  0  0  0
    3.9670    3.0826    0.0630 C   0  0  0  0  0  0
    6.8885    2.7772   -1.4997 C   0  0  0  0  0  0
    3.7434    3.7175    1.4451 C   0  0  0  0  0  0
   -4.9034   -1.0852    0.0499 H   0  0  0  0  0  0
   -3.6328   -1.0367   -1.1565 H   0  0  0  0  0  0
   -2.1981    1.1246   -1.3047 H   0  0  0  0  0  0
   -2.5516    2.4206   -0.1818 H   0  0  0  0  0  0
   -2.9614   -2.4066    0.8140 H   0  0  0  0  0  0
   -3.2524   -1.0691    1.8811 H   0  0  0  0  0  0
   -1.7832    1.0801    1.7305 H   0  0  0  0  0  0
   -0.5403    1.1863    0.5111 H   0  0  0  0  0  0
   -4.6119    1.2398   -2.0240 H   0  0  0  0  0  0
   -5.8552    0.8308   -0.8685 H   0  0  0  0  0  0
    1.2349   -1.5753   -1.6541 H   0  0  0  0  0  0
    0.9916   -0.1897    2.4237 H   0  0  0  0  0  0
   -4.1952    3.7656   -2.3536 H   0  0  0  0  0  0
   -1.5308   -3.0071   -1.4787 H   0  0  0  0  0  0
    0.6002   -3.3342    2.2581 H   0  0  0  0  0  0
   -6.3426    2.9710    1.1920 H   0  0  0  0  0  0
    3.5023   -0.6079   -1.8492 H   0  0  0  0  0  0
    3.2610    0.7662    2.2369 H   0  0  0  0  0  0
   -4.9132    5.9676   -1.3450 H   0  0  0  0  0  0
    0.5185   -5.8080    2.0852 H   0  0  0  0  0  0
   -0.5886   -6.8889    0.1429 H   0  0  0  0  0  0
    6.4081    3.7065    0.3825 H   0  0  0  0  0  0
    7.1245    2.1378    0.5577 H   0  0  0  0  0  0
    4.2006    3.8719   -0.6527 H   0  0  0  0  0  0
    3.0341    2.6513   -0.3004 H   0  0  0  0  0  0
    7.8732    3.2412   -1.5574 H   0  0  0  0  0  0
    6.9656    1.7863   -1.9477 H   0  0  0  0  0  0
    6.2077    3.3694   -2.1115 H   0  0  0  0  0  0
    2.9265    4.4382    1.4066 H   0  0  0  0  0  0
    3.4882    2.9760    2.1996 H   0  0  0  0  0  0
    4.6293    4.2489    1.7923 H   0  0  0  0  0  0
   -1.7119   -6.5469   -1.8448 H   0  0  0  0  0  0
   -3.8932    0.7723   -0.0877 N   0  3  1  0  0  0
   -4.1687    1.0145    0.8534 H   0  0  0  0  0  0
  1 25  1  0  0  0
  1 64  1  0  0  0
  2 27  2  0  0  0
  3 14  1  0  0  0
  3 24  1  0  0  0
  3 45  1  0  0  0
  4 20  1  0  0  0
  4 24  2  0  0  0
  5 27  1  0  0  0
  5 29  1  0  0  0
  5 30  1  0  0  0
  6  8  1  0  0  0
  6 33  1  0  0  0
  6 34  1  0  0  0
  6 65  1  0  0  0
  7  9  1  0  0  0
  7 35  1  0  0  0
  7 36  1  0  0  0
  7 65  1  0  0  0
  8 10  1  0  0  0
  8 37  1  0  0  0
  8 38  1  0  0  0
  9 10  1  0  0  0
  9 39  1  0  0  0
  9 40  1  0  0  0
 10 12  2  0  0  0
 11 14  1  0  0  0
 11 41  1  0  0  0
 11 42  1  0  0  0
 11 65  1  0  0  0
 12 13  1  0  0  0
 12 15  1  0  0  0
 13 16  2  0  0  0
 13 17  1  0  0  0
 14 20  2  0  0  0
 15 18  2  0  0  0
 15 19  1  0  0  0
 16 22  1  0  0  0
 16 43  1  0  0  0
 17 23  2  0  0  0
 17 44  1  0  0  0
 18 25  1  0  0  0
 18 46  1  0  0  0
 19 26  2  0  0  0
 19 47  1  0  0  0
 20 48  1  0  0  0
 21 22  2  0  0  0
 21 23  1  0  0  0
 21 27  1  0  0  0
 22 49  1  0  0  0
 23 50  1  0  0  0
 24 51  1  0  0  0
 25 28  2  0  0  0
 26 28  1  0  0  0
 26 52  1  0  0  0
 28 53  1  0  0  0
 29 31  1  0  0  0
 29 54  1  0  0  0
 29 55  1  0  0  0
 30 32  1  0  0  0
 30 56  1  0  0  0
 30 57  1  0  0  0
 31 58  1  0  0  0
 31 59  1  0  0  0
 31 60  1  0  0  0
 32 61  1  0  0  0
 32 62  1  0  0  0
 32 63  1  0  0  0
 65 66  1  0  0  0
M  CHG  1  65   1
M  END
> <LID>
L020875

> <PC_CID>
10297281

> <Names>


> <CAS_Numbers>


$$$$
10098562
                    3D
 Structure written by MMmdl.
 75 78  0  0  1  0            999 V2000
   -4.8735   -4.9346   -1.1056 S   0  0  0  0  0  0
    4.3798   -3.1828   -1.7138 O   0  0  0  0  0  0
   -6.0821   -4.4596   -0.4151 O   0  0  0  0  0  0
   -4.9156   -5.2990   -2.5294 O   0  0  0  0  0  0
   -3.6937   -3.6649   -0.9865 N   0  0  0  0  0  0
   -0.5802    8.2147    0.6563 N   0  0  0  0  0  0
    5.5028   -1.8578   -0.2399 N   0  0  0  0  0  0
   -2.7362    2.8704    0.2482 C   0  0  0  0  0  0
   -0.3610    3.3128   -0.2392 C   0  0  0  0  0  0
   -2.3552    1.7737    1.2574 C   0  0  0  0  0  0
    0.0687    2.2319    0.7654 C   0  0  0  0  0  0
   -1.0033    1.1576    0.9139 C   0  0  0  0  0  0
   -2.0899    5.0195   -0.7628 C   0  0  0  0  0  0
   -0.7845   -0.1730    0.7514 C   0  0  0  0  0  0
    0.5327   -0.6997    0.3575 C   0  0  0  0  0  0
   -1.8463   -1.1713    0.9663 C   0  0  0  0  0  0
   -1.1979    6.2404   -0.6202 C   0  0  0  0  0  0
   -2.2979   -1.9650   -0.1096 C   0  0  0  0  0  0
    1.0347   -0.4782   -0.9431 C   0  0  0  0  0  0
    1.2825   -1.4804    1.2620 C   0  0  0  0  0  0
   -2.3924   -1.3761    2.2513 C   0  0  0  0  0  0
   -0.2108    6.5381   -1.5832 C   0  0  0  0  0  0
   -1.3436    7.1165    0.4765 C   0  0  0  0  0  0
   -3.2987   -2.9409    0.0796 C   0  0  0  0  0  0
    2.2841   -1.0042   -1.3237 C   0  0  0  0  0  0
    2.5321   -2.0070    0.8827 C   0  0  0  0  0  0
    3.0484   -1.7556   -0.4066 C   0  0  0  0  0  0
   -3.3922   -2.3458    2.4502 C   0  0  0  0  0  0
   -3.8466   -3.1244    1.3691 C   0  0  0  0  0  0
    0.5886    7.6827   -1.4037 C   0  0  0  0  0  0
    4.3711   -2.3241   -0.8310 C   0  0  0  0  0  0
    0.3646    8.4871   -0.2689 C   0  0  0  0  0  0
    6.8162   -2.3998   -0.6194 C   0  0  0  0  0  0
    5.5634   -0.7231    0.6972 C   0  0  0  0  0  0
    7.3487   -1.7610   -1.9117 C   0  0  0  0  0  0
    5.7518   -1.1742    2.1547 C   0  0  0  0  0  0
   -4.1084   -6.3113   -0.1559 C   0  0  0  0  0  0
   -3.1549    1.0355    1.2863 H   0  0  0  0  0  0
   -2.2928    2.1984    2.2601 H   0  0  0  0  0  0
    0.2213    2.6881    1.7443 H   0  0  0  0  0  0
    1.0371    1.8271    0.4768 H   0  0  0  0  0  0
   -2.9211    2.4247   -0.7307 H   0  0  0  0  0  0
   -3.6702    3.3373    0.5637 H   0  0  0  0  0  0
   -0.4177    2.8873   -1.2425 H   0  0  0  0  0  0
    0.4060    4.0867   -0.2672 H   0  0  0  0  0  0
   -2.1075    4.6832   -1.8009 H   0  0  0  0  0  0
   -3.1086    5.3255   -0.5195 H   0  0  0  0  0  0
   -1.8700   -1.8187   -1.0912 H   0  0  0  0  0  0
    0.4597    0.0972   -1.6539 H   0  0  0  0  0  0
    0.8978   -1.6810    2.2514 H   0  0  0  0  0  0
   -2.0456   -0.7871    3.0879 H   0  0  0  0  0  0
   -0.0643    5.9000   -2.4424 H   0  0  0  0  0  0
   -2.0897    6.9271    1.2343 H   0  0  0  0  0  0
    2.6557   -0.8248   -2.3225 H   0  0  0  0  0  0
    3.0825   -2.6178    1.5821 H   0  0  0  0  0  0
   -3.8109   -2.4945    3.4346 H   0  0  0  0  0  0
   -4.6154   -3.8588    1.5517 H   0  0  0  0  0  0
    1.3556    7.9401   -2.1193 H   0  0  0  0  0  0
   -3.2393   -3.4249   -1.8553 H   0  0  0  0  0  0
    0.9597    9.3724   -0.1002 H   0  0  0  0  0  0
    7.5384   -2.2339    0.1804 H   0  0  0  0  0  0
    6.7610   -3.4837   -0.7352 H   0  0  0  0  0  0
    6.4002   -0.0820    0.4167 H   0  0  0  0  0  0
    4.6876   -0.0785    0.6206 H   0  0  0  0  0  0
    8.3309   -2.1615   -2.1631 H   0  0  0  0  0  0
    6.6882   -1.9560   -2.7569 H   0  0  0  0  0  0
    7.4492   -0.6804   -1.8076 H   0  0  0  0  0  0
    5.7957   -0.3109    2.8189 H   0  0  0  0  0  0
    4.9347   -1.8066    2.4962 H   0  0  0  0  0  0
    6.6779   -1.7332    2.2870 H   0  0  0  0  0  0
   -3.9662   -6.0167    0.8825 H   0  0  0  0  0  0
   -4.7629   -7.1814   -0.1961 H   0  0  0  0  0  0
   -3.1447   -6.5644   -0.5969 H   0  0  0  0  0  0
   -1.6762    3.9038    0.1258 N   0  3  1  0  0  0
   -1.5664    4.3008    1.0480 H   0  0  0  0  0  0
  1  3  2  0  0  0
  1  4  2  0  0  0
  1  5  1  0  0  0
  1 37  1  0  0  0
  2 31  2  0  0  0
  5 24  1  0  0  0
  5 59  1  0  0  0
  6 23  1  0  0  0
  6 32  2  0  0  0
  7 31  1  0  0  0
  7 33  1  0  0  0
  7 34  1  0  0  0
  8 10  1  0  0  0
  8 42  1  0  0  0
  8 43  1  0  0  0
  8 74  1  0  0  0
  9 11  1  0  0  0
  9 44  1  0  0  0
  9 45  1  0  0  0
  9 74  1  0  0  0
 10 12  1  0  0  0
 10 38  1  0  0  0
 10 39  1  0  0  0
 11 12  1  0  0  0
 11 40  1  0  0  0
 11 41  1  0  0  0
 12 14  2  0  0  0
 13 17  1  0  0  0
 13 46  1  0  0  0
 13 47  1  0  0  0
 13 74  1  0  0  0
 14 15  1  0  0  0
 14 16  1  0  0  0
 15 19  2  0  0  0
 15 20  1  0  0  0
 16 18  2  0  0  0
 16 21  1  0  0  0
 17 22  1  0  0  0
 17 23  2  0  0  0
 18 24  1  0  0  0
 18 48  1  0  0  0
 19 25  1  0  0  0
 19 49  1  0  0  0
 20 26  2  0  0  0
 20 50  1  0  0  0
 21 28  2  0  0  0
 21 51  1  0  0  0
 22 30  2  0  0  0
 22 52  1  0  0  0
 23 53  1  0  0  0
 24 29  2  0  0  0
 25 27  2  0  0  0
 25 54  1  0  0  0
 26 27  1  0  0  0
 26 55  1  0  0  0
 27 31  1  0  0  0
 28 29  1  0  0  0
 28 56  1  0  0  0
 29 57  1  0  0  0
 30 32  1  0  0  0
 30 58  1  0  0  0
 32 60  1  0  0  0
 33 35  1  0  0  0
 33 61  1  0  0  0
 33 62  1  0  0  0
 34 36  1  0  0  0
 34 63  1  0  0  0
 34 64  1  0  0  0
 35 65  1  0  0  0
 35 66  1  0  0  0
 35 67  1  0  0  0
 36 68  1  0  0  0
 36 69  1  0  0  0
 36 70  1  0  0  0
 37 71  1  0  0  0
 37 72  1  0  0  0
 37 73  1  0  0  0
 74 75  1  0  0  0
M  CHG  1  74   1
M  END
> <LID>
L023124

> <PC_CID>
10098562

> <Names>


> <CAS_Numbers>


$$$$
10482690
                    3D
 Structure written by MMmdl.
 79 83  0  0  1  0            999 V2000
    2.3209   -0.5522    1.8184 O   0  0  0  0  0  0
    8.3536   -4.5626    2.2649 O   0  0  0  0  0  0
    3.2963    1.9730   -0.4823 N   0  0  0  0  0  0
    4.2070    0.3362    0.9037 N   0  0  0  0  0  0
   -5.2958    1.6122    2.4695 N   0  0  0  0  0  0
    2.1810    1.2847    0.2022 C   0  0  0  0  0  0
    1.3697    2.2498    1.1162 C   0  0  0  0  0  0
    1.2445    0.5497   -0.8018 C   0  0  0  0  0  0
    0.0674    1.6367    1.6686 C   0  0  0  0  0  0
   -0.0511    0.0103   -0.1642 C   0  0  0  0  0  0
    2.8929    0.2460    1.0761 C   0  0  0  0  0  0
    4.5619    1.3741   -0.0395 C   0  0  0  0  0  0
   -2.1062    0.6378    1.0692 C   0  0  0  0  0  0
    3.2639    2.9992   -1.3903 C   0  0  0  0  0  0
    5.2296   -0.4978    1.5278 C   0  0  0  0  0  0
   -3.1761    0.6507   -0.0483 C   0  0  0  0  0  0
    5.3985   -1.8300    0.7797 C   0  0  0  0  0  0
   -4.5907    0.1661    0.3794 C   0  0  0  0  0  0
    4.4741    3.5146   -1.9282 C   0  0  0  0  0  0
    2.0551    3.5946   -1.8379 C   0  0  0  0  0  0
    6.4804   -2.7209    1.4054 C   0  0  0  0  0  0
   -5.5539    0.3925   -0.7977 C   0  0  0  0  0  0
   -4.6425   -1.3175    0.7953 C   0  0  0  0  0  0
    4.4769    4.5679   -2.8627 C   0  0  0  0  0  0
    2.0546    4.6482   -2.7723 C   0  0  0  0  0  0
    6.6466   -4.0563    0.6533 C   0  0  0  0  0  0
    3.2659    5.1377   -3.2873 C   0  0  0  0  0  0
   -4.9888    0.9772    1.5510 C   0  0  0  0  0  0
   -5.4748   -0.4405   -1.9396 C   0  0  0  0  0  0
   -5.7452   -1.7834    1.5511 C   0  0  0  0  0  0
   -6.5149    1.4336   -0.7876 C   0  0  0  0  0  0
   -3.6453   -2.2517    0.4168 C   0  0  0  0  0  0
    7.7227   -4.9648    1.2618 C   0  0  0  0  0  0
   -6.3389   -0.2499   -3.0346 C   0  0  0  0  0  0
   -5.8393   -3.1335    1.9390 C   0  0  0  0  0  0
   -7.3793    1.6243   -1.8831 C   0  0  0  0  0  0
   -3.7387   -3.6021    0.8051 C   0  0  0  0  0  0
   -7.2937    0.7823   -3.0066 C   0  0  0  0  0  0
   -4.8337   -4.0440    1.5689 C   0  0  0  0  0  0
    1.1084    3.1701    0.6022 H   0  0  0  0  0  0
    1.9894    2.5766    1.9531 H   0  0  0  0  0  0
    0.9614    1.1879   -1.6336 H   0  0  0  0  0  0
    1.7799   -0.2788   -1.2691 H   0  0  0  0  0  0
    0.2749    0.8642    2.4095 H   0  0  0  0  0  0
   -0.4844    2.4183    2.1925 H   0  0  0  0  0  0
   -0.6805   -0.3908   -0.9575 H   0  0  0  0  0  0
    0.1568   -0.8274    0.5017 H   0  0  0  0  0  0
    5.1950    2.1157    0.4504 H   0  0  0  0  0  0
    5.1045    0.9376   -0.8797 H   0  0  0  0  0  0
   -2.0175   -0.3436    1.5355 H   0  0  0  0  0  0
   -2.4297    1.3153    1.8597 H   0  0  0  0  0  0
    6.1758    0.0447    1.5405 H   0  0  0  0  0  0
    4.9668   -0.6808    2.5710 H   0  0  0  0  0  0
   -3.2631    1.6800   -0.4003 H   0  0  0  0  0  0
   -2.8408    0.0893   -0.9188 H   0  0  0  0  0  0
    4.4499   -2.3684    0.7713 H   0  0  0  0  0  0
    5.6508   -1.6326   -0.2630 H   0  0  0  0  0  0
    5.4353    3.1177   -1.6404 H   0  0  0  0  0  0
    1.0915    3.2706   -1.4865 H   0  0  0  0  0  0
    7.4290   -2.1816    1.4123 H   0  0  0  0  0  0
    6.2253   -2.9152    2.4484 H   0  0  0  0  0  0
    5.4130    4.9386   -3.2540 H   0  0  0  0  0  0
    1.1194    5.0818   -3.0947 H   0  0  0  0  0  0
    5.7018   -4.6006    0.6483 H   0  0  0  0  0  0
    6.9077   -3.8668   -0.3884 H   0  0  0  0  0  0
    3.2661    5.9458   -4.0041 H   0  0  0  0  0  0
   -4.7461   -1.2360   -1.9844 H   0  0  0  0  0  0
   -6.5358   -1.1049    1.8366 H   0  0  0  0  0  0
   -6.6081    2.1051    0.0522 H   0  0  0  0  0  0
   -2.7956   -1.9585   -0.1787 H   0  0  0  0  0  0
   -6.2680   -0.8961   -3.8972 H   0  0  0  0  0  0
   -6.6863   -3.4709    2.5182 H   0  0  0  0  0  0
   -8.1090    2.4204   -1.8614 H   0  0  0  0  0  0
   -2.9696   -4.3017    0.5122 H   0  0  0  0  0  0
   -7.9571    0.9298   -3.8461 H   0  0  0  0  0  0
   -4.9053   -5.0804    1.8648 H   0  0  0  0  0  0
    7.8962   -6.0672    0.6985 O   0  5  0  0  0  0
   -0.7733    1.0752    0.5804 N   0  3  0  0  0  0
   -0.9395    1.8334   -0.0661 H   0  0  0  0  0  0
  1 11  2  0  0  0
  2 33  2  0  0  0
  3  6  1  0  0  0
  3 12  1  0  0  0
  3 14  1  0  0  0
  4 11  1  0  0  0
  4 12  1  0  0  0
  4 15  1  0  0  0
  5 28  3  0  0  0
  6  7  1  0  0  0
  6  8  1  0  0  0
  6 11  1  0  0  0
  7  9  1  0  0  0
  7 40  1  0  0  0
  7 41  1  0  0  0
  8 10  1  0  0  0
  8 42  1  0  0  0
  8 43  1  0  0  0
  9 44  1  0  0  0
  9 45  1  0  0  0
  9 78  1  0  0  0
 10 46  1  0  0  0
 10 47  1  0  0  0
 10 78  1  0  0  0
 12 48  1  0  0  0
 12 49  1  0  0  0
 13 16  1  0  0  0
 13 50  1  0  0  0
 13 51  1  0  0  0
 13 78  1  0  0  0
 14 19  2  0  0  0
 14 20  1  0  0  0
 15 17  1  0  0  0
 15 52  1  0  0  0
 15 53  1  0  0  0
 16 18  1  0  0  0
 16 54  1  0  0  0
 16 55  1  0  0  0
 17 21  1  0  0  0
 17 56  1  0  0  0
 17 57  1  0  0  0
 18 22  1  0  0  0
 18 23  1  0  0  0
 18 28  1  0  0  0
 19 24  1  0  0  0
 19 58  1  0  0  0
 20 25  2  0  0  0
 20 59  1  0  0  0
 21 26  1  0  0  0
 21 60  1  0  0  0
 21 61  1  0  0  0
 22 29  2  0  0  0
 22 31  1  0  0  0
 23 30  2  0  0  0
 23 32  1  0  0  0
 24 27  2  0  0  0
 24 62  1  0  0  0
 25 27  1  0  0  0
 25 63  1  0  0  0
 26 33  1  0  0  0
 26 64  1  0  0  0
 26 65  1  0  0  0
 27 66  1  0  0  0
 29 34  1  0  0  0
 29 67  1  0  0  0
 30 35  1  0  0  0
 30 68  1  0  0  0
 31 36  2  0  0  0
 31 69  1  0  0  0
 32 37  2  0  0  0
 32 70  1  0  0  0
 33 77  1  0  0  0
 34 38  2  0  0  0
 34 71  1  0  0  0
 35 39  2  0  0  0
 35 72  1  0  0  0
 36 38  1  0  0  0
 36 73  1  0  0  0
 37 39  1  0  0  0
 37 74  1  0  0  0
 38 75  1  0  0  0
 39 76  1  0  0  0
 78 79  1  0  0  0
M  CHG  2  77  -1  78   1
M  END
> <LID>
L022595

> <PC_CID>
10482690

> <Names>


> <CAS_Numbers>


$$$$
11295311
                    3D
 Structure written by MMmdl.
 73 76  0  0  1  0            999 V2000
   -2.5504    2.2489    0.2421 S   0  0  0  0  0  0
   -3.0074    2.3301    1.6376 O   0  0  0  0  0  0
   -1.6566    3.2781   -0.3092 O   0  0  0  0  0  0
    5.3405    0.7654    2.9759 O   0  0  0  0  0  0
   -1.6701    0.7565    0.0668 N   0  0  0  0  0  0
    6.2649    1.1198    0.9242 N   0  0  0  0  0  0
    0.0935   -1.3152   -1.8856 C   0  0  0  0  0  0
   -1.2266   -1.7300   -2.5302 C   0  0  0  0  0  0
    1.1622   -1.0317   -2.9375 C   0  0  0  0  0  0
   -1.6819   -0.6845   -3.5629 C   0  0  0  0  0  0
    0.6610    0.0014   -3.9611 C   0  0  0  0  0  0
    0.2862   -1.2064   -0.5465 C   0  0  0  0  0  0
   -0.8170   -1.4441    0.4049 C   0  0  0  0  0  0
    1.5535   -0.7152    0.0193 C   0  0  0  0  0  0
   -1.7733   -0.4358    0.6974 C   0  0  0  0  0  0
   -0.8961   -2.6958    1.0524 C   0  0  0  0  0  0
    1.9206    0.6405   -0.1251 C   0  0  0  0  0  0
    2.3918   -1.5808    0.7528 C   0  0  0  0  0  0
   -2.8050   -0.7179    1.6233 C   0  0  0  0  0  0
    3.9754    0.2415    1.1369 C   0  0  0  0  0  0
    3.1226    1.1171    0.4316 C   0  0  0  0  0  0
    3.5942   -1.1054    1.3105 C   0  0  0  0  0  0
   -1.9259   -2.9626    1.9716 C   0  0  0  0  0  0
   -2.8826   -1.9730    2.2541 C   0  0  0  0  0  0
   -3.9866    2.0438   -0.9054 C   0  0  0  0  0  0
    5.2534    0.7379    1.7477 C   0  0  0  0  0  0
   -4.9307    0.9539   -0.4350 C   0  0  0  0  0  0
    7.5269    1.6271    1.4833 C   0  0  0  0  0  0
    6.2737    0.9540   -0.5394 C   0  0  0  0  0  0
   -4.8954   -0.3214   -1.0384 C   0  0  0  0  0  0
   -5.8517    1.2097    0.6027 C   0  0  0  0  0  0
    8.4564    0.4870    1.9279 C   0  0  0  0  0  0
    6.0172    2.2754   -1.2818 C   0  0  0  0  0  0
   -5.7627   -1.3384   -0.5952 C   0  0  0  0  0  0
   -6.7193    0.1923    1.0450 C   0  0  0  0  0  0
   -6.6736   -1.0823    0.4477 C   0  0  0  0  0  0
   -1.0752   -2.6911   -3.0231 H   0  0  0  0  0  0
   -2.0198   -1.8897   -1.8012 H   0  0  0  0  0  0
    2.1028   -0.6953   -2.5045 H   0  0  0  0  0  0
    1.3893   -1.9693   -3.4465 H   0  0  0  0  0  0
   -2.5817   -1.0255   -4.0756 H   0  0  0  0  0  0
   -1.9370    0.2501   -3.0613 H   0  0  0  0  0  0
    0.5271    0.9714   -3.4800 H   0  0  0  0  0  0
    1.3980    0.1381   -4.7529 H   0  0  0  0  0  0
   -0.1663   -3.4628    0.8379 H   0  0  0  0  0  0
    1.2771    1.3228   -0.6610 H   0  0  0  0  0  0
    2.1175   -2.6165    0.8884 H   0  0  0  0  0  0
   -0.8681    0.8209   -0.5415 H   0  0  0  0  0  0
   -3.5629    0.0093    1.8620 H   0  0  0  0  0  0
    3.3767    2.1610    0.3273 H   0  0  0  0  0  0
    4.2265   -1.7817    1.8678 H   0  0  0  0  0  0
   -1.9827   -3.9254    2.4577 H   0  0  0  0  0  0
   -4.5182    2.9944   -0.9518 H   0  0  0  0  0  0
   -3.6069    1.8320   -1.9042 H   0  0  0  0  0  0
   -3.6786   -2.1749    2.9558 H   0  0  0  0  0  0
    8.0466    2.2401    0.7465 H   0  0  0  0  0  0
    7.3289    2.2951    2.3234 H   0  0  0  0  0  0
    7.2467    0.5641   -0.8415 H   0  0  0  0  0  0
    5.5613    0.1990   -0.8724 H   0  0  0  0  0  0
   -4.1965   -0.5281   -1.8348 H   0  0  0  0  0  0
   -5.8877    2.1833    1.0695 H   0  0  0  0  0  0
    9.3930    0.8840    2.3197 H   0  0  0  0  0  0
    8.0019   -0.1175    2.7133 H   0  0  0  0  0  0
    8.6999   -0.1736    1.0955 H   0  0  0  0  0  0
    6.0362    2.1174   -2.3602 H   0  0  0  0  0  0
    5.0484    2.7036   -1.0324 H   0  0  0  0  0  0
    6.7766    3.0218   -1.0494 H   0  0  0  0  0  0
   -5.7279   -2.3157   -1.0536 H   0  0  0  0  0  0
   -7.4186    0.3892    1.8442 H   0  0  0  0  0  0
   -7.3380   -1.8626    0.7886 H   0  0  0  0  0  0
   -0.6228   -0.4230   -4.5625 N   0  3  0  0  0  0
   -0.9404    0.2934   -5.2001 H   0  0  0  0  0  0
   -0.4628   -1.2725   -5.0853 H   0  0  0  0  0  0
  1  2  2  0  0  0
  1  3  2  0  0  0
  1  5  1  0  0  0
  1 25  1  0  0  0
  4 26  2  0  0  0
  5 15  1  0  0  0
  5 48  1  0  0  0
  6 26  1  0  0  0
  6 28  1  0  0  0
  6 29  1  0  0  0
  7  8  1  0  0  0
  7  9  1  0  0  0
  7 12  2  0  0  0
  8 10  1  0  0  0
  8 37  1  0  0  0
  8 38  1  0  0  0
  9 11  1  0  0  0
  9 39  1  0  0  0
  9 40  1  0  0  0
 10 41  1  0  0  0
 10 42  1  0  0  0
 10 71  1  0  0  0
 11 43  1  0  0  0
 11 44  1  0  0  0
 11 71  1  0  0  0
 12 13  1  0  0  0
 12 14  1  0  0  0
 13 15  1  0  0  0
 13 16  2  0  0  0
 14 17  2  0  0  0
 14 18  1  0  0  0
 15 19  2  0  0  0
 16 23  1  0  0  0
 16 45  1  0  0  0
 17 21  1  0  0  0
 17 46  1  0  0  0
 18 22  2  0  0  0
 18 47  1  0  0  0
 19 24  1  0  0  0
 19 49  1  0  0  0
 20 21  2  0  0  0
 20 22  1  0  0  0
 20 26  1  0  0  0
 21 50  1  0  0  0
 22 51  1  0  0  0
 23 24  2  0  0  0
 23 52  1  0  0  0
 24 55  1  0  0  0
 25 27  1  0  0  0
 25 53  1  0  0  0
 25 54  1  0  0  0
 27 30  2  0  0  0
 27 31  1  0  0  0
 28 32  1  0  0  0
 28 56  1  0  0  0
 28 57  1  0  0  0
 29 33  1  0  0  0
 29 58  1  0  0  0
 29 59  1  0  0  0
 30 34  1  0  0  0
 30 60  1  0  0  0
 31 35  2  0  0  0
 31 61  1  0  0  0
 32 62  1  0  0  0
 32 63  1  0  0  0
 32 64  1  0  0  0
 33 65  1  0  0  0
 33 66  1  0  0  0
 33 67  1  0  0  0
 34 36  2  0  0  0
 34 68  1  0  0  0
 35 36  1  0  0  0
 35 69  1  0  0  0
 36 70  1  0  0  0
 71 72  1  0  0  0
 71 73  1  0  0  0
M  CHG  1  71   1
M  END
> <LID>
L023444

> <PC_CID>
11295311

> <Names>


> <CAS_Numbers>


$$$$
10230226
                    3D
 Structure written by MMmdl.
 79 82  0  0  1  0            999 V2000
   -3.5838    8.8398    3.2844 F   0  0  0  0  0  0
   -3.2146    2.5855    7.4547 O   0  0  0  0  0  0
   -9.4689    9.4349    0.8417 O   0  0  0  0  0  0
   -4.6627    6.3624    2.5986 N   0  0  0  0  0  0
   -4.2332    4.1994    8.7111 N   0  0  0  0  0  0
   -9.6486    7.4105    1.8015 N   0  0  0  0  0  0
   -3.9405    5.8718    1.4126 C   0  0  0  0  0  0
   -2.9013    6.8743    0.8737 C   0  0  0  0  0  0
   -4.8749    5.4435    0.2654 C   0  0  0  0  0  0
   -2.1368    6.2808   -0.3209 C   0  0  0  0  0  0
   -4.0696    4.8773   -0.9157 C   0  0  0  0  0  0
   -2.3384    5.4120   -2.6165 C   0  0  0  0  0  0
   -4.4419    5.7287    3.7740 C   0  0  0  0  0  0
   -5.4099    7.4871    2.5004 C   0  0  0  0  0  0
   -3.2403    5.3482   -3.8367 C   0  0  0  0  0  0
   -5.5323    5.2350    4.5235 C   0  0  0  0  0  0
   -3.1304    5.5438    4.2679 C   0  0  0  0  0  0
   -6.7507    7.4122    2.0627 C   0  0  0  0  0  0
   -4.8633    8.7436    2.8475 C   0  0  0  0  0  0
   -4.0094    4.4259    6.2564 C   0  0  0  0  0  0
   -3.7138    4.1056   -4.3099 C   0  0  0  0  0  0
   -3.6069    6.5353   -4.5057 C   0  0  0  0  0  0
   -5.3173    4.5776    5.7499 C   0  0  0  0  0  0
   -2.9154    4.8863    5.4942 C   0  0  0  0  0  0
   -7.5450    8.5774    1.9602 C   0  0  0  0  0  0
   -5.6449    9.9084    2.7365 C   0  0  0  0  0  0
   -4.3692    3.2983    9.8838 C   0  0  0  0  0  0
   -4.4137    5.6493    8.9998 C   0  0  0  0  0  0
   -3.7705    3.6818    7.5365 C   0  0  0  0  0  0
   -6.9767    9.8275    2.2885 C   0  0  0  0  0  0
   -4.5526    4.0520   -5.4401 C   0  0  0  0  0  0
   -4.4454    6.4806   -5.6360 C   0  0  0  0  0  0
   -4.9189    5.2392   -6.1029 C   0  0  0  0  0  0
   -3.1886    3.4509   10.8608 C   0  0  0  0  0  0
   -5.7404    3.4279   10.5762 C   0  0  0  0  0  0
   -3.1875    6.5092    8.6365 C   0  0  0  0  0  0
   -5.7327    6.2393    8.4705 C   0  0  0  0  0  0
   -8.9622    8.5066    1.4679 C   0  0  0  0  0  0
   -3.3945    4.9735    1.7060 H   0  0  0  0  0  0
   -2.1952    7.1462    1.6586 H   0  0  0  0  0  0
   -3.3894    7.7984    0.5616 H   0  0  0  0  0  0
   -5.5834    4.6939    0.6200 H   0  0  0  0  0  0
   -5.4640    6.2906   -0.0871 H   0  0  0  0  0  0
   -1.4382    7.0263   -0.7031 H   0  0  0  0  0  0
   -1.5413    5.4251    0.0018 H   0  0  0  0  0  0
   -4.7622    4.6159   -1.7156 H   0  0  0  0  0  0
   -3.5659    3.9554   -0.6204 H   0  0  0  0  0  0
   -1.5289    6.1082   -2.8411 H   0  0  0  0  0  0
   -1.8712    4.4425   -2.4360 H   0  0  0  0  0  0
   -6.5421    5.3515    4.1583 H   0  0  0  0  0  0
   -2.2795    5.9086    3.7122 H   0  0  0  0  0  0
   -7.1631    6.4485    1.8004 H   0  0  0  0  0  0
   -6.1626    4.1949    6.3035 H   0  0  0  0  0  0
   -1.9060    4.7471    5.8540 H   0  0  0  0  0  0
   -3.4385    3.1897   -3.8075 H   0  0  0  0  0  0
   -3.2473    7.4918   -4.1549 H   0  0  0  0  0  0
   -5.2208   10.8674    2.9955 H   0  0  0  0  0  0
   -4.3485    2.2589    9.5515 H   0  0  0  0  0  0
   -4.4837    5.7567   10.0804 H   0  0  0  0  0  0
   -7.5619   10.7324    2.2063 H   0  0  0  0  0  0
   -4.9148    3.0998   -5.7994 H   0  0  0  0  0  0
   -4.7252    7.3909   -6.1458 H   0  0  0  0  0  0
   -5.5618    5.1976   -6.9700 H   0  0  0  0  0  0
   -3.2475    2.7088   11.6573 H   0  0  0  0  0  0
   -2.2366    3.3050   10.3494 H   0  0  0  0  0  0
   -3.1645    4.4323   11.3336 H   0  0  0  0  0  0
   -5.8630    2.6507   11.3310 H   0  0  0  0  0  0
   -6.5531    3.3126    9.8584 H   0  0  0  0  0  0
   -5.8731    4.3838   11.0816 H   0  0  0  0  0  0
   -3.2699    7.5003    9.0832 H   0  0  0  0  0  0
   -2.2657    6.0606    9.0083 H   0  0  0  0  0  0
   -3.0842    6.6567    7.5632 H   0  0  0  0  0  0
   -5.6697    6.5184    7.4210 H   0  0  0  0  0  0
   -6.5646    5.5462    8.5963 H   0  0  0  0  0  0
   -5.9842    7.1507    9.0136 H   0  0  0  0  0  0
  -10.6128    7.3229    1.5156 H   0  0  0  0  0  0
   -9.2090    6.6839    2.3465 H   0  0  0  0  0  0
   -3.0653    5.8615   -1.4026 N   0  3  0  0  0  0
   -3.5779    6.6889   -1.6730 H   0  0  0  0  0  0
  1 19  1  0  0  0
  2 29  2  0  0  0
  3 38  2  0  0  0
  4  7  1  0  0  0
  4 13  1  0  0  0
  4 14  1  0  0  0
  5 27  1  0  0  0
  5 28  1  0  0  0
  5 29  1  0  0  0
  6 38  1  0  0  0
  6 76  1  0  0  0
  6 77  1  0  0  0
  7  8  1  0  0  0
  7  9  1  0  0  0
  7 39  1  0  0  0
  8 10  1  0  0  0
  8 40  1  0  0  0
  8 41  1  0  0  0
  9 11  1  0  0  0
  9 42  1  0  0  0
  9 43  1  0  0  0
 10 44  1  0  0  0
 10 45  1  0  0  0
 10 78  1  0  0  0
 11 46  1  0  0  0
 11 47  1  0  0  0
 11 78  1  0  0  0
 12 15  1  0  0  0
 12 48  1  0  0  0
 12 49  1  0  0  0
 12 78  1  0  0  0
 13 16  2  0  0  0
 13 17  1  0  0  0
 14 18  1  0  0  0
 14 19  2  0  0  0
 15 21  2  0  0  0
 15 22  1  0  0  0
 16 23  1  0  0  0
 16 50  1  0  0  0
 17 24  2  0  0  0
 17 51  1  0  0  0
 18 25  2  0  0  0
 18 52  1  0  0  0
 19 26  1  0  0  0
 20 23  2  0  0  0
 20 24  1  0  0  0
 20 29  1  0  0  0
 21 31  1  0  0  0
 21 55  1  0  0  0
 22 32  2  0  0  0
 22 56  1  0  0  0
 23 53  1  0  0  0
 24 54  1  0  0  0
 25 30  1  0  0  0
 25 38  1  0  0  0
 26 30  2  0  0  0
 26 57  1  0  0  0
 27 34  1  0  0  0
 27 35  1  0  0  0
 27 58  1  0  0  0
 28 36  1  0  0  0
 28 37  1  0  0  0
 28 59  1  0  0  0
 30 60  1  0  0  0
 31 33  2  0  0  0
 31 61  1  0  0  0
 32 33  1  0  0  0
 32 62  1  0  0  0
 33 63  1  0  0  0
 34 64  1  0  0  0
 34 65  1  0  0  0
 34 66  1  0  0  0
 35 67  1  0  0  0
 35 68  1  0  0  0
 35 69  1  0  0  0
 36 70  1  0  0  0
 36 71  1  0  0  0
 36 72  1  0  0  0
 37 73  1  0  0  0
 37 74  1  0  0  0
 37 75  1  0  0  0
 78 79  1  0  0  0
M  CHG  1  78   1
M  END
> <LID>
L021987

> <PC_CID>
10230226

> <Names>


> <CAS_Numbers>


$$$$
4058
                    3D
 Structure written by MMmdl.
 40 41  0  0  1  0            999 V2000
   -1.8350   -1.5555   -0.5299 O   0  0  0  0  0  0
   -1.4322   -2.0216    1.6735 O   0  0  0  0  0  0
    0.1996   -0.6962    0.4390 C   0  0  0  0  0  0
    1.0907   -1.4186   -0.6163 C   0  0  0  0  0  0
    1.0328   -0.7413    1.7558 C   0  0  0  0  0  0
    2.4954   -0.7936   -0.7547 C   0  0  0  0  0  0
    2.4142   -0.0819    1.5980 C   0  0  0  0  0  0
   -0.1824    0.7538    0.0535 C   0  0  0  0  0  0
   -1.1102   -1.5007    0.6038 C   0  0  0  0  0  0
    4.5774   -0.2305    0.4324 C   0  0  0  0  0  0
   -0.6784    1.6438    1.0394 C   0  0  0  0  0  0
   -0.1028    1.2236   -1.2827 C   0  0  0  0  0  0
   -1.0463    2.9626    0.7114 C   0  0  0  0  0  0
   -0.4699    2.5425   -1.6117 C   0  0  0  0  0  0
   -0.9375    3.4158   -0.6145 C   0  0  0  0  0  0
   -3.0731   -2.2456   -0.5416 C   0  0  0  0  0  0
   -3.6992   -2.1302   -1.9333 C   0  0  0  0  0  0
    0.6071   -1.4663   -1.5920 H   0  0  0  0  0  0
    1.2176   -2.4628   -0.3234 H   0  0  0  0  0  0
    1.1898   -1.7788    2.0577 H   0  0  0  0  0  0
    0.5039   -0.2864    2.5923 H   0  0  0  0  0  0
    3.0792   -1.3751   -1.4693 H   0  0  0  0  0  0
    2.4366    0.2189   -1.1543 H   0  0  0  0  0  0
    2.3115    0.9771    1.3559 H   0  0  0  0  0  0
    2.9511   -0.1372    2.5458 H   0  0  0  0  0  0
    5.0977   -0.2937    1.3887 H   0  0  0  0  0  0
    5.1543   -0.7997   -0.2973 H   0  0  0  0  0  0
    4.5645    0.8142    0.1185 H   0  0  0  0  0  0
   -0.7986    1.3264    2.0634 H   0  0  0  0  0  0
    0.2349    0.5889   -2.0859 H   0  0  0  0  0  0
   -1.4190    3.6252    1.4786 H   0  0  0  0  0  0
   -0.3972    2.8830   -2.6342 H   0  0  0  0  0  0
   -1.2216    4.4267   -0.8677 H   0  0  0  0  0  0
   -2.9156   -3.2942   -0.2858 H   0  0  0  0  0  0
   -3.7428   -1.8194    0.2067 H   0  0  0  0  0  0
   -4.6554   -2.6519   -1.9726 H   0  0  0  0  0  0
   -3.8758   -1.0874   -2.1983 H   0  0  0  0  0  0
   -3.0494   -2.5652   -2.6931 H   0  0  0  0  0  0
    3.2042   -0.7678    0.5476 N   0  3  0  0  0  0
    3.2972   -1.7297    0.8425 H   0  0  0  0  0  0
  1  9  1  0  0  0
  1 16  1  0  0  0
  2  9  2  0  0  0
  3  4  1  0  0  0
  3  5  1  0  0  0
  3  8  1  0  0  0
  3  9  1  0  0  0
  4  6  1  0  0  0
  4 18  1  0  0  0
  4 19  1  0  0  0
  5  7  1  0  0  0
  5 20  1  0  0  0
  5 21  1  0  0  0
  6 22  1  0  0  0
  6 23  1  0  0  0
  6 39  1  0  0  0
  7 24  1  0  0  0
  7 25  1  0  0  0
  7 39  1  0  0  0
  8 11  2  0  0  0
  8 12  1  0  0  0
 10 26  1  0  0  0
 10 27  1  0  0  0
 10 28  1  0  0  0
 10 39  1  0  0  0
 11 13  1  0  0  0
 11 29  1  0  0  0
 12 14  2  0  0  0
 12 30  1  0  0  0
 13 15  2  0  0  0
 13 31  1  0  0  0
 14 15  1  0  0  0
 14 32  1  0  0  0
 15 33  1  0  0  0
 16 17  1  0  0  0
 16 34  1  0  0  0
 16 35  1  0  0  0
 17 36  1  0  0  0
 17 37  1  0  0  0
 17 38  1  0  0  0
 39 40  1  0  0  0
M  CHG  1  39   1
M  END
> <LID>
L013412

> <PC_CID>
4058

> <Names>
Meperidine;Phenoperidine

> <CAS_Numbers>
50-13-5;57-42-1

$$$$
10298276
                    3D
 Structure written by MMmdl.
 66 69  0  0  1  0            999 V2000
   -7.6723    3.3559    0.7309 S   0  0  0  0  0  0
   -2.3607   -4.6561   -2.0573 O   0  0  0  0  0  0
    6.1809   -0.7494   -0.1116 O   0  0  0  0  0  0
    5.8298    1.4912    0.1027 N   0  0  0  0  0  0
   -1.7659    2.2562   -0.3025 C   0  0  0  0  0  0
   -3.5165    0.5215   -0.2200 C   0  0  0  0  0  0
   -0.9001    1.4703    0.6973 C   0  0  0  0  0  0
   -2.6907   -0.2927    0.7883 C   0  0  0  0  0  0
   -1.1989   -0.0232    0.6243 C   0  0  0  0  0  0
   -4.0587    2.8138   -1.0112 C   0  0  0  0  0  0
   -0.2608   -0.9855    0.4272 C   0  0  0  0  0  0
    1.1740   -0.6662    0.3331 C   0  0  0  0  0  0
   -5.4933    2.8255   -0.5698 C   0  0  0  0  0  0
   -0.6212   -2.4073    0.2955 C   0  0  0  0  0  0
    1.8748   -0.9050   -0.8678 C   0  0  0  0  0  0
    1.8748   -0.1657    1.4517 C   0  0  0  0  0  0
   -6.5315    2.0638   -1.1897 C   0  0  0  0  0  0
   -1.3371   -2.8646   -0.8327 C   0  0  0  0  0  0
   -0.2115   -3.3360    1.2760 C   0  0  0  0  0  0
   -5.9622    3.5763    0.4793 C   0  0  0  0  0  0
    3.9419   -0.0874    0.1493 C   0  0  0  0  0  0
    3.2508   -0.6200   -0.9591 C   0  0  0  0  0  0
    3.2503    0.1207    1.3618 C   0  0  0  0  0  0
   -7.7562    2.2404   -0.6024 C   0  0  0  0  0  0
   -1.6608   -4.2287   -0.9670 C   0  0  0  0  0  0
   -0.5333   -4.7007    1.1425 C   0  0  0  0  0  0
    5.4111    0.1996    0.0423 C   0  0  0  0  0  0
   -1.2602   -5.1477    0.0225 C   0  0  0  0  0  0
    7.2623    1.8127    0.0174 C   0  0  0  0  0  0
    4.9446    2.6682    0.1216 C   0  0  0  0  0  0
    7.7615    1.8259   -1.4360 C   0  0  0  0  0  0
    4.8384    3.3009    1.5186 C   0  0  0  0  0  0
   -1.4726    2.0052   -1.3233 H   0  0  0  0  0  0
   -1.5793    3.3232   -0.1739 H   0  0  0  0  0  0
   -4.5745    0.3418   -0.0296 H   0  0  0  0  0  0
   -3.3144    0.1726   -1.2341 H   0  0  0  0  0  0
    0.1470    1.6968    0.5036 H   0  0  0  0  0  0
   -1.1052    1.8111    1.7129 H   0  0  0  0  0  0
   -2.9722   -0.0051    1.8021 H   0  0  0  0  0  0
   -2.9432   -1.3480    0.7033 H   0  0  0  0  0  0
   -3.6798    3.8368   -1.0094 H   0  0  0  0  0  0
   -3.9695    2.4617   -2.0401 H   0  0  0  0  0  0
    1.3567   -1.3082   -1.7258 H   0  0  0  0  0  0
    1.3570   -0.0041    2.3860 H   0  0  0  0  0  0
   -6.3466    1.4168   -2.0348 H   0  0  0  0  0  0
   -1.6411   -2.1650   -1.5978 H   0  0  0  0  0  0
    0.3504   -3.0022    2.1364 H   0  0  0  0  0  0
   -5.4111    4.2476    1.1218 H   0  0  0  0  0  0
    3.7729   -0.8070   -1.8866 H   0  0  0  0  0  0
    3.7729    0.4853    2.2331 H   0  0  0  0  0  0
   -8.6991    1.7868   -0.8711 H   0  0  0  0  0  0
   -0.2204   -5.4051    1.8991 H   0  0  0  0  0  0
   -1.5039   -6.1956   -0.0744 H   0  0  0  0  0  0
    7.4579    2.7863    0.4674 H   0  0  0  0  0  0
    7.8467    1.1027    0.6053 H   0  0  0  0  0  0
    5.3371    3.4126   -0.5725 H   0  0  0  0  0  0
    3.9481    2.4401   -0.2570 H   0  0  0  0  0  0
    8.8193    2.0861   -1.4776 H   0  0  0  0  0  0
    7.6442    0.8506   -1.9089 H   0  0  0  0  0  0
    7.2176    2.5563   -2.0354 H   0  0  0  0  0  0
    4.1816    4.1705    1.4951 H   0  0  0  0  0  0
    4.4337    2.6068    2.2525 H   0  0  0  0  0  0
    5.8090    3.6367    1.8834 H   0  0  0  0  0  0
   -2.5199   -5.5876   -2.0562 H   0  0  0  0  0  0
   -3.2138    1.9749   -0.1240 N   0  3  2  0  0  0
   -3.4397    2.2526    0.8205 H   0  0  0  0  0  0
  1 20  1  0  0  0
  1 24  1  0  0  0
  2 25  1  0  0  0
  2 64  1  0  0  0
  3 27  2  0  0  0
  4 27  1  0  0  0
  4 29  1  0  0  0
  4 30  1  0  0  0
  5  7  1  0  0  0
  5 33  1  0  0  0
  5 34  1  0  0  0
  5 65  1  0  0  0
  6  8  1  0  0  0
  6 35  1  0  0  0
  6 36  1  0  0  0
  6 65  1  0  0  0
  7  9  1  0  0  0
  7 37  1  0  0  0
  7 38  1  0  0  0
  8  9  1  0  0  0
  8 39  1  0  0  0
  8 40  1  0  0  0
  9 11  2  0  0  0
 10 13  1  0  0  0
 10 41  1  0  0  0
 10 42  1  0  0  0
 10 65  1  0  0  0
 11 12  1  0  0  0
 11 14  1  0  0  0
 12 15  2  0  0  0
 12 16  1  0  0  0
 13 17  1  0  0  0
 13 20  2  0  0  0
 14 18  2  0  0  0
 14 19  1  0  0  0
 15 22  1  0  0  0
 15 43  1  0  0  0
 16 23  2  0  0  0
 16 44  1  0  0  0
 17 24  2  0  0  0
 17 45  1  0  0  0
 18 25  1  0  0  0
 18 46  1  0  0  0
 19 26  2  0  0  0
 19 47  1  0  0  0
 20 48  1  0  0  0
 21 22  2  0  0  0
 21 23  1  0  0  0
 21 27  1  0  0  0
 22 49  1  0  0  0
 23 50  1  0  0  0
 24 51  1  0  0  0
 25 28  2  0  0  0
 26 28  1  0  0  0
 26 52  1  0  0  0
 28 53  1  0  0  0
 29 31  1  0  0  0
 29 54  1  0  0  0
 29 55  1  0  0  0
 30 32  1  0  0  0
 30 56  1  0  0  0
 30 57  1  0  0  0
 31 58  1  0  0  0
 31 59  1  0  0  0
 31 60  1  0  0  0
 32 61  1  0  0  0
 32 62  1  0  0  0
 32 63  1  0  0  0
 65 66  1  0  0  0
M  CHG  1  65   1
M  END
> <LID>
L020870

> <PC_CID>
10298276

> <Names>


> <CAS_Numbers>


$$$$
44211139
                    3D
 Structure written by MMmdl.
 60 66  0  0  1  0            999 V2000
    2.1328    2.3226    0.7784 O   0  0  0  0  0  0
    1.2278   -1.9122    2.0638 O   0  0  0  0  0  0
    2.8902    3.8855   -1.6159 O   0  0  0  0  0  0
   -5.4521   -1.2266   -0.7834 O   0  0  0  0  0  0
   -6.7449    0.5326   -0.1426 O   0  0  0  0  0  0
   -0.7397    2.1565    1.6010 N   0  0  0  0  0  0
    2.3400   -0.0588    0.9162 C   0  0  1  0  0  0
    1.4936   -1.3592    0.7812 C   0  0  1  0  0  0
    2.3794   -2.3660   -0.0066 C   0  0  1  0  0  0
    1.6153    1.1934    1.5053 C   0  0  2  0  0  0
    3.6451   -0.3567    1.7005 C   0  0  0  0  0  0
    2.6737    0.4514   -0.4568 C   0  0  0  0  0  0
    0.0886   -1.1285    0.1505 C   0  0  0  0  0  0
    2.7502   -1.8401   -1.4289 C   0  0  0  0  0  0
    4.4580   -1.5087    1.0822 C   0  0  0  0  0  0
    0.1409    1.1478    1.2536 C   0  0  0  0  0  0
    2.9677   -0.3326   -1.5847 C   0  0  0  0  0  0
   -0.5519    0.1308    0.6558 C   0  0  0  0  0  0
    2.5899    1.8309   -0.4115 C   0  0  0  0  0  0
   -1.9324    0.5307    0.6273 C   0  0  0  0  0  0
    4.3479   -3.8739    0.3615 C   0  0  0  0  0  0
    3.2985    0.3799   -2.7568 C   0  0  0  0  0  0
    2.9340    2.5228   -1.5901 C   0  0  0  0  0  0
   -2.0277    1.8182    1.2324 C   0  0  0  0  0  0
    3.3026    1.7976   -2.7508 C   0  0  0  0  0  0
   -3.1293   -0.0556    0.1529 C   0  0  0  0  0  0
   -3.2553    2.4890    1.3592 C   0  0  0  0  0  0
   -4.3790    0.6042    0.2709 C   0  0  0  0  0  0
   -4.4287    1.8803    0.8782 C   0  0  0  0  0  0
   -5.6425   -0.0124   -0.2287 C   0  0  0  0  0  0
   -6.5558   -1.9468   -1.3077 C   0  0  0  0  0  0
   -6.0650   -3.2819   -1.8727 C   0  0  0  0  0  0
    1.8280   -3.3006   -0.1224 H   0  0  0  0  0  0
    1.7986    1.3012    2.5749 H   0  0  0  0  0  0
    3.4023   -0.6083    2.7336 H   0  0  0  0  0  0
    4.2684    0.5369    1.7554 H   0  0  0  0  0  0
   -0.5602   -1.9889    0.3204 H   0  0  0  0  0  0
    0.1743   -1.0446   -0.9322 H   0  0  0  0  0  0
    1.9311   -2.0901   -2.1037 H   0  0  0  0  0  0
    3.6140   -2.3602   -1.8398 H   0  0  0  0  0  0
    4.9496   -1.1863    0.1638 H   0  0  0  0  0  0
    5.2554   -1.7952    1.7689 H   0  0  0  0  0  0
    0.5795   -2.5948    1.9739 H   0  0  0  0  0  0
   -0.4512    3.0123    2.0529 H   0  0  0  0  0  0
    5.0807   -4.1611    1.1162 H   0  0  0  0  0  0
    3.6828   -4.7246    0.2102 H   0  0  0  0  0  0
    4.8861   -3.6873   -0.5676 H   0  0  0  0  0  0
    3.5252   -0.1541   -3.6678 H   0  0  0  0  0  0
    3.5544    2.3312   -3.6555 H   0  0  0  0  0  0
   -3.0620   -1.0305   -0.3069 H   0  0  0  0  0  0
   -3.2990    3.4638    1.8217 H   0  0  0  0  0  0
    2.6167    4.2533   -0.7892 H   0  0  0  0  0  0
   -5.3682    2.4048    0.9805 H   0  0  0  0  0  0
   -7.2923   -2.1206   -0.5220 H   0  0  0  0  0  0
   -7.0405   -1.3635   -2.0919 H   0  0  0  0  0  0
   -6.8948   -3.8573   -2.2834 H   0  0  0  0  0  0
   -5.3385   -3.1267   -2.6707 H   0  0  0  0  0  0
   -5.5908   -3.8850   -1.0981 H   0  0  0  0  0  0
    3.5915   -2.6829    0.8124 N   0  3  2  0  0  0
    3.2125   -2.9378    1.7144 H   0  0  0  0  0  0
  1 10  1  0  0  0
  1 19  1  0  0  0
  2  8  1  0  0  0
  2 43  1  0  0  0
  3 23  1  0  0  0
  3 52  1  0  0  0
  4 30  1  0  0  0
  4 31  1  0  0  0
  5 30  2  0  0  0
  6 16  1  0  0  0
  6 24  1  0  0  0
  6 44  1  0  0  0
  7  8  1  0  0  0
  7 10  1  0  0  0
  7 11  1  0  0  0
  7 12  1  0  0  0
  8  9  1  0  0  0
  8 13  1  0  0  0
  9 14  1  0  0  0
  9 33  1  0  0  0
  9 59  1  0  0  0
 10 16  1  0  0  0
 10 34  1  0  0  0
 11 15  1  0  0  0
 11 35  1  0  0  0
 11 36  1  0  0  0
 12 17  2  0  0  0
 12 19  1  0  0  0
 13 18  1  0  0  0
 13 37  1  0  0  0
 13 38  1  0  0  0
 14 17  1  0  0  0
 14 39  1  0  0  0
 14 40  1  0  0  0
 15 41  1  0  0  0
 15 42  1  0  0  0
 15 59  1  0  0  0
 16 18  2  0  0  0
 17 22  1  0  0  0
 18 20  1  0  0  0
 19 23  2  0  0  0
 20 24  2  0  0  0
 20 26  1  0  0  0
 21 45  1  0  0  0
 21 46  1  0  0  0
 21 47  1  0  0  0
 21 59  1  0  0  0
 22 25  2  0  0  0
 22 48  1  0  0  0
 23 25  1  0  0  0
 24 27  1  0  0  0
 25 49  1  0  0  0
 26 28  2  0  0  0
 26 50  1  0  0  0
 27 29  2  0  0  0
 27 51  1  0  0  0
 28 29  1  0  0  0
 28 30  1  0  0  0
 29 53  1  0  0  0
 31 32  1  0  0  0
 31 54  1  0  0  0
 31 55  1  0  0  0
 32 56  1  0  0  0
 32 57  1  0  0  0
 32 58  1  0  0  0
 59 60  1  0  0  0
M  CHG  1  59   1
M  END
> <LID>
L009149

> <PC_CID>
44211139

> <Names>


> <CAS_Numbers>


$$$$
9825263
                    3D
 Structure written by MMmdl.
 68 71  0  0  1  0            999 V2000
   -1.8366    4.9923   -2.0428 O   0  0  0  0  0  0
    6.4513    0.5138   -0.3786 O   0  0  0  0  0  0
   -6.2747   -1.4561   -1.1496 N   0  0  0  0  0  0
    5.9900   -1.6869   -0.0131 N   0  0  0  0  0  0
   -0.7263   -1.2177    0.6894 C   0  0  0  0  0  0
   -2.3894    0.6639    0.8231 C   0  0  0  0  0  0
   -1.6700   -1.9435   -0.2849 C   0  0  0  0  0  0
   -3.2958   -0.0935   -0.1602 C   0  0  0  0  0  0
   -0.9245    0.2927    0.6200 C   0  0  0  0  0  0
    0.0717    1.1882    0.3952 C   0  0  0  0  0  0
   -4.0124   -2.3421   -0.9314 C   0  0  0  0  0  0
    1.4775    0.7701    0.2621 C   0  0  0  0  0  0
   -0.1932    2.6313    0.2690 C   0  0  0  0  0  0
   -5.4493   -2.2636   -0.4475 C   0  0  0  0  0  0
    2.1561    0.9492   -0.9617 C   0  0  0  0  0  0
    2.1754    0.2316    1.3646 C   0  0  0  0  0  0
   -0.9064    3.1357   -0.8408 C   0  0  0  0  0  0
    0.3063    3.5306    1.2351 C   0  0  0  0  0  0
   -5.8681   -3.0037    0.6783 C   0  0  0  0  0  0
    4.1912   -0.0049    0.0005 C   0  0  0  0  0  0
    3.5053    0.5677   -1.0912 C   0  0  0  0  0  0
    3.5244   -0.1505    1.2367 C   0  0  0  0  0  0
   -1.1386    4.5188   -0.9705 C   0  0  0  0  0  0
    0.0760    4.9141    1.1062 C   0  0  0  0  0  0
    5.6379   -0.3808   -0.1439 C   0  0  0  0  0  0
   -0.6486    5.4090    0.0050 C   0  0  0  0  0  0
   -7.2103   -2.8947    1.0903 C   0  0  0  0  0  0
   -7.5600   -1.3586   -0.7468 C   0  0  0  0  0  0
   -8.0757   -2.0543    0.3644 C   0  0  0  0  0  0
    7.4029   -2.0896   -0.0723 C   0  0  0  0  0  0
    5.0445   -2.8103    0.0960 C   0  0  0  0  0  0
    8.0648   -2.0081    1.3103 C   0  0  0  0  0  0
    4.4716   -3.2053   -1.2732 C   0  0  0  0  0  0
    0.2976   -1.5153    0.4688 H   0  0  0  0  0  0
   -0.9270   -1.5426    1.7110 H   0  0  0  0  0  0
   -2.5713    1.7339    0.7411 H   0  0  0  0  0  0
   -2.6625    0.3979    1.8450 H   0  0  0  0  0  0
   -1.3878   -1.7136   -1.3138 H   0  0  0  0  0  0
   -1.5539   -3.0208   -0.1590 H   0  0  0  0  0  0
   -4.3339    0.1576    0.0580 H   0  0  0  0  0  0
   -3.0985    0.2398   -1.1805 H   0  0  0  0  0  0
   -3.9346   -2.0025   -1.9660 H   0  0  0  0  0  0
   -3.7229   -3.3939   -0.9283 H   0  0  0  0  0  0
    1.6414    1.3809   -1.8078 H   0  0  0  0  0  0
    1.6756    0.1123    2.3149 H   0  0  0  0  0  0
   -1.2789    2.4578   -1.5952 H   0  0  0  0  0  0
    0.8670    3.1598    2.0809 H   0  0  0  0  0  0
   -5.1815   -3.6421    1.2148 H   0  0  0  0  0  0
    4.0108    0.7119   -2.0354 H   0  0  0  0  0  0
    4.0457   -0.5549    2.0925 H   0  0  0  0  0  0
    0.4573    5.5961    1.8518 H   0  0  0  0  0  0
   -0.8218    6.4711   -0.0885 H   0  0  0  0  0  0
   -7.5695   -3.4457    1.9471 H   0  0  0  0  0  0
   -8.1959   -0.7061   -1.3266 H   0  0  0  0  0  0
   -9.1113   -1.9463    0.6511 H   0  0  0  0  0  0
    7.4909   -3.1064   -0.4577 H   0  0  0  0  0  0
    7.9555   -1.4734   -0.7836 H   0  0  0  0  0  0
    5.5476   -3.6750    0.5312 H   0  0  0  0  0  0
    4.2354   -2.5960    0.7907 H   0  0  0  0  0  0
    9.1069   -2.3241    1.2595 H   0  0  0  0  0  0
    8.0468   -0.9896    1.6994 H   0  0  0  0  0  0
    7.5574   -2.6514    2.0296 H   0  0  0  0  0  0
    3.8059   -4.0634   -1.1798 H   0  0  0  0  0  0
    3.8988   -2.3919   -1.7187 H   0  0  0  0  0  0
    5.2657   -3.4764   -1.9695 H   0  0  0  0  0  0
   -1.9316    5.9325   -2.0399 H   0  0  0  0  0  0
   -3.0895   -1.5637   -0.0680 N   0  3  1  0  0  0
   -3.3097   -1.8251    0.8825 H   0  0  0  0  0  0
  1 23  1  0  0  0
  1 66  1  0  0  0
  2 25  2  0  0  0
  3 14  1  0  0  0
  3 28  2  0  0  0
  4 25  1  0  0  0
  4 30  1  0  0  0
  4 31  1  0  0  0
  5  7  1  0  0  0
  5  9  1  0  0  0
  5 34  1  0  0  0
  5 35  1  0  0  0
  6  8  1  0  0  0
  6  9  1  0  0  0
  6 36  1  0  0  0
  6 37  1  0  0  0
  7 38  1  0  0  0
  7 39  1  0  0  0
  7 67  1  0  0  0
  8 40  1  0  0  0
  8 41  1  0  0  0
  8 67  1  0  0  0
  9 10  2  0  0  0
 10 12  1  0  0  0
 10 13  1  0  0  0
 11 14  1  0  0  0
 11 42  1  0  0  0
 11 43  1  0  0  0
 11 67  1  0  0  0
 12 15  2  0  0  0
 12 16  1  0  0  0
 13 17  2  0  0  0
 13 18  1  0  0  0
 14 19  2  0  0  0
 15 21  1  0  0  0
 15 44  1  0  0  0
 16 22  2  0  0  0
 16 45  1  0  0  0
 17 23  1  0  0  0
 17 46  1  0  0  0
 18 24  2  0  0  0
 18 47  1  0  0  0
 19 27  1  0  0  0
 19 48  1  0  0  0
 20 21  2  0  0  0
 20 22  1  0  0  0
 20 25  1  0  0  0
 21 49  1  0  0  0
 22 50  1  0  0  0
 23 26  2  0  0  0
 24 26  1  0  0  0
 24 51  1  0  0  0
 26 52  1  0  0  0
 27 29  2  0  0  0
 27 53  1  0  0  0
 28 29  1  0  0  0
 28 54  1  0  0  0
 29 55  1  0  0  0
 30 32  1  0  0  0
 30 56  1  0  0  0
 30 57  1  0  0  0
 31 33  1  0  0  0
 31 58  1  0  0  0
 31 59  1  0  0  0
 32 60  1  0  0  0
 32 61  1  0  0  0
 32 62  1  0  0  0
 33 63  1  0  0  0
 33 64  1  0  0  0
 33 65  1  0  0  0
 67 68  1  0  0  0
M  CHG  1  67   1
M  END
> <LID>
L020867

> <PC_CID>
9825263

> <Names>


> <CAS_Numbers>


$$$$
10203908
                    3D
 Structure written by MMmdl.
 66 69  0  0  1  0            999 V2000
   -5.7134    3.1930    0.4422 O   0  0  0  0  0  0
   -1.8236   -5.5656   -1.8606 O   0  0  0  0  0  0
    5.8625   -0.1066   -0.0969 O   0  0  0  0  0  0
    5.1094    2.0388    0.0432 N   0  0  0  0  0  0
   -3.9034   -0.6236   -0.1906 C   0  0  0  0  0  0
   -2.4994    1.3984   -0.3394 C   0  0  0  0  0  0
   -2.9446   -1.2406    0.8397 C   0  0  0  0  0  0
   -1.5042    0.8152    0.6788 C   0  0  0  0  0  0
   -1.5267   -0.7097    0.6576 C   0  0  0  0  0  0
   -4.8778    1.4717   -1.0447 C   0  0  0  0  0  0
   -0.4291   -1.4915    0.4872 C   0  0  0  0  0  0
    0.9238   -0.9201    0.3739 C   0  0  0  0  0  0
   -0.5247   -2.9587    0.4057 C   0  0  0  0  0  0
   -5.1052    2.9170   -0.7458 C   0  0  0  0  0  0
    1.6569   -1.0687   -0.8222 C   0  0  0  0  0  0
    1.5213   -0.2622    1.4708 C   0  0  0  0  0  0
   -1.1442   -3.5770   -0.7027 C   0  0  0  0  0  0
    0.0459   -3.7633    1.4150 C   0  0  0  0  0  0
   -4.8154    4.0756   -1.4122 C   0  0  0  0  0  0
    3.5403    0.1457    0.1545 C   0  0  0  0  0  0
    2.9581   -0.5415   -0.9311 C   0  0  0  0  0  0
    2.8218    0.2662    1.3632 C   0  0  0  0  0  0
   -1.2143   -4.9810   -0.7890 C   0  0  0  0  0  0
   -5.2773    5.1379   -0.5871 C   0  0  0  0  0  0
   -0.0221   -5.1675    1.3295 C   0  0  0  0  0  0
   -5.8125    4.5480    0.5224 C   0  0  0  0  0  0
    4.9328    0.6913    0.0292 C   0  0  0  0  0  0
   -0.6544   -5.7773    0.2291 C   0  0  0  0  0  0
    6.4595    2.6124   -0.0613 C   0  0  0  0  0  0
    4.0247    3.0352    0.0273 C   0  0  0  0  0  0
    6.9486    2.6661   -1.5171 C   0  0  0  0  0  0
    3.8046    3.6857    1.4026 C   0  0  0  0  0  0
   -4.9162   -0.9772    0.0068 H   0  0  0  0  0  0
   -3.6396   -0.9615   -1.1943 H   0  0  0  0  0  0
   -2.1655    1.1717   -1.3533 H   0  0  0  0  0  0
   -2.5020    2.4846   -0.2453 H   0  0  0  0  0  0
   -3.0009   -2.3265    0.7905 H   0  0  0  0  0  0
   -3.2736   -0.9754    1.8452 H   0  0  0  0  0  0
   -1.7665    1.1472    1.6841 H   0  0  0  0  0  0
   -0.5158    1.2212    0.4703 H   0  0  0  0  0  0
   -4.5671    1.3446   -2.0828 H   0  0  0  0  0  0
   -5.8277    0.9457   -0.9404 H   0  0  0  0  0  0
    1.2212   -1.5887   -1.6630 H   0  0  0  0  0  0
    0.9823   -0.1652    2.4020 H   0  0  0  0  0  0
   -1.5695   -2.9709   -1.4896 H   0  0  0  0  0  0
    0.5367   -3.3036    2.2606 H   0  0  0  0  0  0
   -4.3298    4.1503   -2.3742 H   0  0  0  0  0  0
    3.5059   -0.6623   -1.8548 H   0  0  0  0  0  0
    3.2689    0.7497    2.2186 H   0  0  0  0  0  0
   -5.2243    6.1993   -0.7801 H   0  0  0  0  0  0
    0.4128   -5.7770    2.1079 H   0  0  0  0  0  0
   -6.2815    4.9246    1.4197 H   0  0  0  0  0  0
   -0.7033   -6.8548    0.1690 H   0  0  0  0  0  0
    6.4744    3.6203    0.3542 H   0  0  0  0  0  0
    7.1631    2.0412    0.5470 H   0  0  0  0  0  0
    4.2755    3.8141   -0.6940 H   0  0  0  0  0  0
    3.0866    2.6166   -0.3375 H   0  0  0  0  0  0
    7.9414    3.1127   -1.5737 H   0  0  0  0  0  0
    7.0110    1.6699   -1.9560 H   0  0  0  0  0  0
    6.2812    3.2642   -2.1378 H   0  0  0  0  0  0
    3.0004    4.4200    1.3533 H   0  0  0  0  0  0
    3.5326    2.9553    2.1620 H   0  0  0  0  0  0
    4.6976    4.2049    1.7501 H   0  0  0  0  0  0
   -1.8105   -6.5099   -1.8273 H   0  0  0  0  0  0
   -3.8720    0.8603   -0.1414 N   0  3  1  0  0  0
   -4.1494    1.1172    0.7955 H   0  0  0  0  0  0
  1 14  1  0  0  0
  1 26  1  0  0  0
  2 23  1  0  0  0
  2 64  1  0  0  0
  3 27  2  0  0  0
  4 27  1  0  0  0
  4 29  1  0  0  0
  4 30  1  0  0  0
  5  7  1  0  0  0
  5 33  1  0  0  0
  5 34  1  0  0  0
  5 65  1  0  0  0
  6  8  1  0  0  0
  6 35  1  0  0  0
  6 36  1  0  0  0
  6 65  1  0  0  0
  7  9  1  0  0  0
  7 37  1  0  0  0
  7 38  1  0  0  0
  8  9  1  0  0  0
  8 39  1  0  0  0
  8 40  1  0  0  0
  9 11  2  0  0  0
 10 14  1  0  0  0
 10 41  1  0  0  0
 10 42  1  0  0  0
 10 65  1  0  0  0
 11 12  1  0  0  0
 11 13  1  0  0  0
 12 15  2  0  0  0
 12 16  1  0  0  0
 13 17  2  0  0  0
 13 18  1  0  0  0
 14 19  2  0  0  0
 15 21  1  0  0  0
 15 43  1  0  0  0
 16 22  2  0  0  0
 16 44  1  0  0  0
 17 23  1  0  0  0
 17 45  1  0  0  0
 18 25  2  0  0  0
 18 46  1  0  0  0
 19 24  1  0  0  0
 19 47  1  0  0  0
 20 21  2  0  0  0
 20 22  1  0  0  0
 20 27  1  0  0  0
 21 48  1  0  0  0
 22 49  1  0  0  0
 23 28  2  0  0  0
 24 26  2  0  0  0
 24 50  1  0  0  0
 25 28  1  0  0  0
 25 51  1  0  0  0
 26 52  1  0  0  0
 28 53  1  0  0  0
 29 31  1  0  0  0
 29 54  1  0  0  0
 29 55  1  0  0  0
 30 32  1  0  0  0
 30 56  1  0  0  0
 30 57  1  0  0  0
 31 58  1  0  0  0
 31 59  1  0  0  0
 31 60  1  0  0  0
 32 61  1  0  0  0
 32 62  1  0  0  0
 32 63  1  0  0  0
 65 66  1  0  0  0
M  CHG  1  65   1
M  END
> <LID>
L020871

> <PC_CID>
10203908

> <Names>


> <CAS_Numbers>


$$$$
44209565
                    3D
 Structure written by MMmdl.
 56 57  0  0  1  0            999 V2000
   -1.7550    1.2459   -2.2861 O   0  0  0  0  0  0
   -0.1664   -0.0926   -3.2378 O   0  0  0  0  0  0
   -1.7539   -2.4269   -1.6226 O   0  0  0  0  0  0
    4.8042    0.5088    1.2827 O   0  0  0  0  0  0
    5.8159   -0.1025   -0.6886 O   0  0  0  0  0  0
   -1.5639   -0.6947   -0.1425 N   0  0  0  0  0  0
   -0.3640   -0.0628   -0.7995 C   0  0  0  0  0  0
    0.1284    1.2118   -0.0332 C   0  0  0  0  0  0
    0.8406   -1.0611   -0.7599 C   0  0  0  0  0  0
    1.4639    1.7746   -0.5511 C   0  0  0  0  0  0
    2.1962   -0.4668   -1.2007 C   0  0  0  0  0  0
   -0.7434    0.3594   -2.2477 C   0  0  0  0  0  0
    3.8684    1.3123   -0.7697 C   0  0  0  0  0  0
   -2.1383   -0.0481    0.9900 C   0  0  0  0  0  0
   -2.1501   -1.8383   -0.6164 C   0  0  0  0  0  0
   -3.3724   -2.4525    0.0935 C   0  0  0  0  0  0
    4.9442    0.4938   -0.0571 C   0  0  0  0  0  0
   -1.7026   -0.3844    2.2911 C   0  0  0  0  0  0
   -3.1401    0.9318    0.8157 C   0  0  0  0  0  0
   -4.6798   -2.1104   -0.6343 C   0  0  0  0  0  0
   -2.2308    1.7120   -3.5363 C   0  0  0  0  0  0
   -2.2674    0.2568    3.4104 C   0  0  0  0  0  0
   -3.7027    1.5706    1.9373 C   0  0  0  0  0  0
   -3.2666    1.2336    3.2336 C   0  0  0  0  0  0
    5.6980   -0.2252    2.1087 C   0  0  0  0  0  0
    5.2325   -1.6799    2.2558 C   0  0  0  0  0  0
    0.2766    0.9833    1.0225 H   0  0  0  0  0  0
   -0.6200    2.0051   -0.0634 H   0  0  0  0  0  0
    0.6548   -1.9390   -1.3775 H   0  0  0  0  0  0
    0.9479   -1.4406    0.2576 H   0  0  0  0  0  0
    1.3786    2.1129   -1.5849 H   0  0  0  0  0  0
    1.7324    2.6497    0.0422 H   0  0  0  0  0  0
    2.9701   -1.2210   -1.0543 H   0  0  0  0  0  0
    2.1962   -0.2381   -2.2665 H   0  0  0  0  0  0
    4.0288    1.3143   -1.8486 H   0  0  0  0  0  0
    3.9478    2.3431   -0.4229 H   0  0  0  0  0  0
   -3.2440   -3.5355    0.0847 H   0  0  0  0  0  0
   -3.4438   -2.1897    1.1474 H   0  0  0  0  0  0
   -0.9365   -1.1331    2.4313 H   0  0  0  0  0  0
   -3.4799    1.1937   -0.1756 H   0  0  0  0  0  0
   -4.6445   -2.4097   -1.6826 H   0  0  0  0  0  0
   -4.8858   -1.0404   -0.5979 H   0  0  0  0  0  0
   -5.5234   -2.6245   -0.1734 H   0  0  0  0  0  0
   -3.0471    2.4176   -3.3820 H   0  0  0  0  0  0
   -1.4399    2.2211   -4.0885 H   0  0  0  0  0  0
   -2.6049    0.8857   -4.1421 H   0  0  0  0  0  0
   -1.9346   -0.0008    4.4051 H   0  0  0  0  0  0
   -4.4697    2.3192    1.8035 H   0  0  0  0  0  0
   -3.6996    1.7243    4.0929 H   0  0  0  0  0  0
    6.7159   -0.1821    1.7179 H   0  0  0  0  0  0
    5.7212    0.2496    3.0897 H   0  0  0  0  0  0
    5.8971   -2.2320    2.9204 H   0  0  0  0  0  0
    4.2268   -1.7294    2.6737 H   0  0  0  0  0  0
    5.2233   -2.1944    1.2947 H   0  0  0  0  0  0
    2.5336    0.7584   -0.4343 N   0  3  0  0  0  0
    2.5750    0.4999    0.5418 H   0  0  0  0  0  0
  1 12  1  0  0  0
  1 21  1  0  0  0
  2 12  2  0  0  0
  3 15  2  0  0  0
  4 17  1  0  0  0
  4 25  1  0  0  0
  5 17  2  0  0  0
  6  7  1  0  0  0
  6 14  1  0  0  0
  6 15  1  0  0  0
  7  8  1  0  0  0
  7  9  1  0  0  0
  7 12  1  0  0  0
  8 10  1  0  0  0
  8 27  1  0  0  0
  8 28  1  0  0  0
  9 11  1  0  0  0
  9 29  1  0  0  0
  9 30  1  0  0  0
 10 31  1  0  0  0
 10 32  1  0  0  0
 10 55  1  0  0  0
 11 33  1  0  0  0
 11 34  1  0  0  0
 11 55  1  0  0  0
 13 17  1  0  0  0
 13 35  1  0  0  0
 13 36  1  0  0  0
 13 55  1  0  0  0
 14 18  2  0  0  0
 14 19  1  0  0  0
 15 16  1  0  0  0
 16 20  1  0  0  0
 16 37  1  0  0  0
 16 38  1  0  0  0
 18 22  1  0  0  0
 18 39  1  0  0  0
 19 23  2  0  0  0
 19 40  1  0  0  0
 20 41  1  0  0  0
 20 42  1  0  0  0
 20 43  1  0  0  0
 21 44  1  0  0  0
 21 45  1  0  0  0
 21 46  1  0  0  0
 22 24  2  0  0  0
 22 47  1  0  0  0
 23 24  1  0  0  0
 23 48  1  0  0  0
 24 49  1  0  0  0
 25 26  1  0  0  0
 25 50  1  0  0  0
 25 51  1  0  0  0
 26 52  1  0  0  0
 26 53  1  0  0  0
 26 54  1  0  0  0
 55 56  1  0  0  0
M  CHG  1  55   1
M  END
> <LID>
L004290

> <PC_CID>
44209565

> <Names>


> <CAS_Numbers>


$$$$
44215095
                    3D
 Structure written by MMmdl.
 73 77  0  0  1  0            999 V2000
    0.5916    5.2969   -0.7155 O   0  0  0  0  0  0
    6.5299   -0.2304    1.1882 O   0  0  0  0  0  0
    3.3249   -2.1428   -1.8739 O   0  0  0  0  0  0
    5.5858   -1.4033   -0.4998 N   0  0  0  0  0  0
    4.3041   -0.8900   -0.2586 N   0  0  0  0  0  0
   -1.9616    1.1657    0.3545 C   0  0  0  0  0  0
   -2.4321    0.7858    1.7917 C   0  0  0  0  0  0
   -3.1060    0.6346   -0.5610 C   0  0  0  0  0  0
   -2.6668   -0.7288    1.9611 C   0  0  0  0  0  0
   -3.3540   -0.8797   -0.3992 C   0  0  0  0  0  0
   -0.6009    0.4970    0.0139 C   0  0  0  0  0  0
   -1.8731    2.7053    0.2248 C   0  0  0  0  0  0
   -3.9952   -2.6608    1.2104 C   0  0  0  0  0  0
    7.9803   -1.6612   -0.1015 C   0  0  0  0  0  0
    9.1374   -0.6567   -0.2458 C   0  0  0  0  0  0
    8.7389   -2.2686    1.0920 C   0  0  0  0  0  0
   10.0183   -1.6192    0.5562 C   0  0  0  0  0  0
   -0.2864    0.0974   -1.3096 C   0  0  0  0  0  0
    0.3966    0.3218    1.0062 C   0  0  0  0  0  0
   -0.6856    3.3636   -0.1891 C   0  0  0  0  0  0
   -3.0020    3.5084    0.5181 C   0  0  0  0  0  0
   -5.2787   -3.0826    0.5172 C   0  0  0  0  0  0
    6.6276   -1.0306    0.2558 C   0  0  0  0  0  0
    0.9551   -0.4888   -1.6196 C   0  0  0  0  0  0
    1.6394   -0.2633    0.6985 C   0  0  0  0  0  0
   -0.6132    4.7668   -0.3060 C   0  0  0  0  0  0
    1.9331   -0.6705   -0.6208 C   0  0  0  0  0  0
   -2.9457    4.9091    0.4063 C   0  0  0  0  0  0
   -1.7587    5.5401   -0.0029 C   0  0  0  0  0  0
   -5.2309   -3.7974   -0.6990 C   0  0  0  0  0  0
   -6.5280   -2.7624    1.0898 C   0  0  0  0  0  0
    3.2456   -1.3169   -0.9631 C   0  0  0  0  0  0
   -6.4240   -4.1834   -1.3401 C   0  0  0  0  0  0
   -7.7206   -3.1493    0.4481 C   0  0  0  0  0  0
   -7.6689   -3.8591   -0.7671 C   0  0  0  0  0  0
    0.6940    6.7077   -0.8418 C   0  0  0  0  0  0
   -3.3740    1.2808    2.0271 H   0  0  0  0  0  0
   -1.7415    1.1508    2.5505 H   0  0  0  0  0  0
   -2.9293    0.8822   -1.6068 H   0  0  0  0  0  0
   -4.0434    1.1372   -0.3223 H   0  0  0  0  0  0
   -1.7407   -1.2886    1.8262 H   0  0  0  0  0  0
   -3.0008   -0.9239    2.9810 H   0  0  0  0  0  0
   -4.1743   -1.1669   -1.0569 H   0  0  0  0  0  0
   -2.4862   -1.4578   -0.7178 H   0  0  0  0  0  0
   -3.1584   -3.2714    0.8671 H   0  0  0  0  0  0
   -4.1110   -2.8664    2.2757 H   0  0  0  0  0  0
    7.9306   -2.3505   -0.9468 H   0  0  0  0  0  0
    8.9756    0.2927    0.2681 H   0  0  0  0  0  0
    9.4719   -0.5003   -1.2717 H   0  0  0  0  0  0
    8.7653   -3.3586    1.1005 H   0  0  0  0  0  0
    8.4406   -1.8711    2.0639 H   0  0  0  0  0  0
   10.5975   -2.2903   -0.0799 H   0  0  0  0  0  0
   10.6396   -1.1429    1.3151 H   0  0  0  0  0  0
   -0.9837    0.2350   -2.1199 H   0  0  0  0  0  0
    0.2367    0.6378    2.0242 H   0  0  0  0  0  0
    0.2085    2.8104   -0.4310 H   0  0  0  0  0  0
   -3.9333    3.0633    0.8330 H   0  0  0  0  0  0
    1.1548   -0.7893   -2.6383 H   0  0  0  0  0  0
    2.3630   -0.3926    1.4905 H   0  0  0  0  0  0
   -3.8186    5.5027    0.6352 H   0  0  0  0  0  0
   -1.7531    6.6169   -0.0773 H   0  0  0  0  0  0
    5.6012   -2.0536   -1.2732 H   0  0  0  0  0  0
   -4.2804   -4.0498   -1.1463 H   0  0  0  0  0  0
   -6.5768   -2.2191    2.0223 H   0  0  0  0  0  0
    4.3002   -0.1985    0.4782 H   0  0  0  0  0  0
   -6.3846   -4.7290   -2.2715 H   0  0  0  0  0  0
   -8.6757   -2.9024    0.8882 H   0  0  0  0  0  0
   -8.5837   -4.1559   -1.2588 H   0  0  0  0  0  0
    1.7000    6.9672   -1.1712 H   0  0  0  0  0  0
   -0.0055    7.0936   -1.5846 H   0  0  0  0  0  0
    0.5208    7.2073    0.1124 H   0  0  0  0  0  0
   -3.6927   -1.2217    1.0077 N   0  3  0  0  0  0
   -4.5431   -0.7227    1.2271 H   0  0  0  0  0  0
  1 26  1  0  0  0
  1 36  1  0  0  0
  2 23  2  0  0  0
  3 32  2  0  0  0
  4  5  1  0  0  0
  4 23  1  0  0  0
  4 62  1  0  0  0
  5 32  1  0  0  0
  5 65  1  0  0  0
  6  7  1  0  0  0
  6  8  1  0  0  0
  6 11  1  0  0  0
  6 12  1  0  0  0
  7  9  1  0  0  0
  7 37  1  0  0  0
  7 38  1  0  0  0
  8 10  1  0  0  0
  8 39  1  0  0  0
  8 40  1  0  0  0
  9 41  1  0  0  0
  9 42  1  0  0  0
  9 72  1  0  0  0
 10 43  1  0  0  0
 10 44  1  0  0  0
 10 72  1  0  0  0
 11 18  2  0  0  0
 11 19  1  0  0  0
 12 20  2  0  0  0
 12 21  1  0  0  0
 13 22  1  0  0  0
 13 45  1  0  0  0
 13 46  1  0  0  0
 13 72  1  0  0  0
 14 15  1  0  0  0
 14 16  1  0  0  0
 14 23  1  0  0  0
 14 47  1  0  0  0
 15 17  1  0  0  0
 15 48  1  0  0  0
 15 49  1  0  0  0
 16 17  1  0  0  0
 16 50  1  0  0  0
 16 51  1  0  0  0
 17 52  1  0  0  0
 17 53  1  0  0  0
 18 24  1  0  0  0
 18 54  1  0  0  0
 19 25  2  0  0  0
 19 55  1  0  0  0
 20 26  1  0  0  0
 20 56  1  0  0  0
 21 28  2  0  0  0
 21 57  1  0  0  0
 22 30  2  0  0  0
 22 31  1  0  0  0
 24 27  2  0  0  0
 24 58  1  0  0  0
 25 27  1  0  0  0
 25 59  1  0  0  0
 26 29  2  0  0  0
 27 32  1  0  0  0
 28 29  1  0  0  0
 28 60  1  0  0  0
 29 61  1  0  0  0
 30 33  1  0  0  0
 30 63  1  0  0  0
 31 34  2  0  0  0
 31 64  1  0  0  0
 33 35  2  0  0  0
 33 66  1  0  0  0
 34 35  1  0  0  0
 34 67  1  0  0  0
 35 68  1  0  0  0
 36 69  1  0  0  0
 36 70  1  0  0  0
 36 71  1  0  0  0
 72 73  1  0  0  0
M  CHG  1  72   1
M  END
> <LID>
L019579

> <PC_CID>
44215095

> <Names>


> <CAS_Numbers>


$$$$
44215094
                    3D
 Structure written by MMmdl.
 61 64  0  0  1  0            999 V2000
   -4.1720   -3.5604   -0.6106 O   0  0  0  0  0  0
   -3.4798    4.4082   -1.2346 O   0  0  0  0  0  0
   -4.8426    3.5524    0.3670 N   0  0  0  0  0  0
   -5.7928    4.5583    0.2507 N   0  0  0  0  0  0
   -0.0328   -0.9994    0.4080 C   0  0  0  0  0  0
    0.6417   -0.9501    1.8130 C   0  0  0  0  0  0
    1.1708   -0.9525   -0.5814 C   0  0  0  0  0  0
    1.5163    0.3044    2.0097 C   0  0  0  0  0  0
    2.0600    0.2944   -0.3924 C   0  0  0  0  0  0
   -0.9898    0.2079    0.2046 C   0  0  0  0  0  0
   -0.7849   -2.3408    0.2353 C   0  0  0  0  0  0
    3.5027    1.5226    1.2153 C   0  0  0  0  0  0
   -2.1594   -2.3989   -0.1142 C   0  0  0  0  0  0
   -1.1697    0.8014   -1.0704 C   0  0  0  0  0  0
   -1.7630    0.7156    1.2791 C   0  0  0  0  0  0
   -0.1008   -3.5671    0.4191 C   0  0  0  0  0  0
    4.7987    1.3960    0.4339 C   0  0  0  0  0  0
   -2.8374   -3.6251   -0.2714 C   0  0  0  0  0  0
   -2.0533    1.8815   -1.2546 C   0  0  0  0  0  0
   -2.6487    1.7946    1.0972 C   0  0  0  0  0  0
   -0.7630   -4.7981    0.2658 C   0  0  0  0  0  0
   -2.8063    2.3857   -0.1749 C   0  0  0  0  0  0
   -2.1253   -4.8322   -0.0770 C   0  0  0  0  0  0
    4.9923    2.1374   -0.7514 C   0  0  0  0  0  0
    5.8182    0.5353    0.8932 C   0  0  0  0  0  0
   -3.7295    3.5528   -0.3834 C   0  0  0  0  0  0
    6.1946    2.0141   -1.4746 C   0  0  0  0  0  0
    7.0203    0.4130    0.1694 C   0  0  0  0  0  0
    7.2084    1.1516   -1.0147 C   0  0  0  0  0  0
   -4.8804   -4.7800   -0.7767 C   0  0  0  0  0  0
    1.2908   -1.8139    1.9549 H   0  0  0  0  0  0
   -0.0910   -1.0318    2.6143 H   0  0  0  0  0  0
    0.8406   -1.0320   -1.6163 H   0  0  0  0  0  0
    1.8100   -1.8237   -0.4371 H   0  0  0  0  0  0
    0.9160    1.2139    1.9666 H   0  0  0  0  0  0
    1.9614    0.2738    3.0050 H   0  0  0  0  0  0
    2.8834    0.2417   -1.1047 H   0  0  0  0  0  0
    1.5120    1.2086   -0.6217 H   0  0  0  0  0  0
    2.9935    2.4535    0.9602 H   0  0  0  0  0  0
    3.7592    1.5907    2.2736 H   0  0  0  0  0  0
   -2.7371   -1.5018   -0.2738 H   0  0  0  0  0  0
   -0.6412    0.4424   -1.9385 H   0  0  0  0  0  0
   -1.7020    0.2856    2.2657 H   0  0  0  0  0  0
    0.9463   -3.5852    0.6789 H   0  0  0  0  0  0
   -2.1565    2.3144   -2.2395 H   0  0  0  0  0  0
   -3.2044    2.1597    1.9487 H   0  0  0  0  0  0
   -0.2222   -5.7218    0.4111 H   0  0  0  0  0  0
   -2.5999   -5.7955   -0.1860 H   0  0  0  0  0  0
    4.2197    2.8009   -1.1120 H   0  0  0  0  0  0
    5.6827   -0.0342    1.8011 H   0  0  0  0  0  0
    6.3396    2.5815   -2.3822 H   0  0  0  0  0  0
    7.7990   -0.2471    0.5227 H   0  0  0  0  0  0
    8.1305    1.0578   -1.5694 H   0  0  0  0  0  0
   -5.9148   -4.5617   -1.0417 H   0  0  0  0  0  0
   -4.4547   -5.3824   -1.5803 H   0  0  0  0  0  0
   -4.8927   -5.3630    0.1452 H   0  0  0  0  0  0
   -5.0212    2.8104    1.0283 H   0  0  0  0  0  0
   -5.6529    5.2382    0.9955 H   0  0  0  0  0  0
   -5.6622    5.0312   -0.6422 H   0  0  0  0  0  0
    2.5961    0.3685    0.9926 N   0  3  0  0  0  0
    3.1583   -0.4599    1.1270 H   0  0  0  0  0  0
  1 18  1  0  0  0
  1 30  1  0  0  0
  2 26  2  0  0  0
  3  4  1  0  0  0
  3 26  1  0  0  0
  3 57  1  0  0  0
  4 58  1  0  0  0
  4 59  1  0  0  0
  5  6  1  0  0  0
  5  7  1  0  0  0
  5 10  1  0  0  0
  5 11  1  0  0  0
  6  8  1  0  0  0
  6 31  1  0  0  0
  6 32  1  0  0  0
  7  9  1  0  0  0
  7 33  1  0  0  0
  7 34  1  0  0  0
  8 35  1  0  0  0
  8 36  1  0  0  0
  8 60  1  0  0  0
  9 37  1  0  0  0
  9 38  1  0  0  0
  9 60  1  0  0  0
 10 14  2  0  0  0
 10 15  1  0  0  0
 11 13  2  0  0  0
 11 16  1  0  0  0
 12 17  1  0  0  0
 12 39  1  0  0  0
 12 40  1  0  0  0
 12 60  1  0  0  0
 13 18  1  0  0  0
 13 41  1  0  0  0
 14 19  1  0  0  0
 14 42  1  0  0  0
 15 20  2  0  0  0
 15 43  1  0  0  0
 16 21  2  0  0  0
 16 44  1  0  0  0
 17 24  2  0  0  0
 17 25  1  0  0  0
 18 23  2  0  0  0
 19 22  2  0  0  0
 19 45  1  0  0  0
 20 22  1  0  0  0
 20 46  1  0  0  0
 21 23  1  0  0  0
 21 47  1  0  0  0
 22 26  1  0  0  0
 23 48  1  0  0  0
 24 27  1  0  0  0
 24 49  1  0  0  0
 25 28  2  0  0  0
 25 50  1  0  0  0
 27 29  2  0  0  0
 27 51  1  0  0  0
 28 29  1  0  0  0
 28 52  1  0  0  0
 29 53  1  0  0  0
 30 54  1  0  0  0
 30 55  1  0  0  0
 30 56  1  0  0  0
 60 61  1  0  0  0
M  CHG  1  60   1
M  END
> <LID>
L019578

> <PC_CID>
44215094

> <Names>


> <CAS_Numbers>


$$$$
44211137
                    3D
 Structure written by MMmdl.
 47 53  0  0  1  0            999 V2000
    0.5291   -1.5305   -1.5468 O   0  0  0  0  0  0
    0.4291    2.9201   -0.7472 O   0  0  0  0  0  0
   -2.2526   -0.6656   -1.3860 O   0  0  0  0  0  0
    1.3939   -4.0654   -0.2973 O   0  0  0  0  0  0
    1.2783    0.6246   -0.8160 C   0  0  1  0  0  0
    0.8289    1.8276    0.0693 C   0  0  1  0  0  0
    2.0888    2.2573    0.8711 C   0  0  1  0  0  0
    0.1570   -0.1411   -1.5909 C   0  0  2  0  0  0
    2.4019    1.0770   -1.7864 C   0  0  0  0  0  0
    1.7795   -0.4745    0.0797 C   0  0  0  0  0  0
   -0.4110    1.5265    0.9660 C   0  0  0  0  0  0
    2.6396    1.1268    1.7864 C   0  0  0  0  0  0
    3.5956    1.7117   -1.0508 C   0  0  0  0  0  0
    2.5035   -0.3102    1.2738 C   0  0  0  0  0  0
   -1.1574   -0.0119   -0.8927 C   0  0  0  0  0  0
   -1.4364    0.7134    0.2344 C   0  0  0  0  0  0
    1.3496   -1.6714   -0.4636 C   0  0  0  0  0  0
   -2.8314    0.5039    0.4965 C   0  0  0  0  0  0
    2.9022   -1.5009    1.9173 C   0  0  0  0  0  0
    1.7672   -2.8479    0.1904 C   0  0  0  0  0  0
   -3.2958   -0.3575   -0.5341 C   0  0  0  0  0  0
    2.5543   -2.7595    1.3656 C   0  0  0  0  0  0
   -3.7775    0.9208    1.4618 C   0  0  0  0  0  0
   -4.6272   -0.7967   -0.6235 C   0  0  0  0  0  0
   -5.1204    0.4906    1.3901 C   0  0  0  0  0  0
   -5.5460   -0.3651    0.3521 C   0  0  0  0  0  0
    1.8491    3.1174    1.4977 H   0  0  0  0  0  0
    0.0606    0.2073   -2.6197 H   0  0  0  0  0  0
    2.7527    0.2324   -2.3813 H   0  0  0  0  0  0
    2.0020    1.7944   -2.5041 H   0  0  0  0  0  0
   -0.1061    0.9634    1.8474 H   0  0  0  0  0  0
   -0.8484    2.4489    1.3507 H   0  0  0  0  0  0
    2.1006    1.1598    2.7338 H   0  0  0  0  0  0
    3.6826    1.3148    2.0438 H   0  0  0  0  0  0
    4.2680    2.1858   -1.7661 H   0  0  0  0  0  0
    4.1841    0.9477   -0.5425 H   0  0  0  0  0  0
    0.0083    3.5699   -0.2040 H   0  0  0  0  0  0
    3.4527   -1.4551    2.8455 H   0  0  0  0  0  0
    2.8627   -3.6635    1.8701 H   0  0  0  0  0  0
   -3.4679    1.5756    2.2628 H   0  0  0  0  0  0
   -4.9373   -1.4516   -1.4242 H   0  0  0  0  0  0
    0.8568   -3.9943   -1.0720 H   0  0  0  0  0  0
   -5.8289    0.8192    2.1365 H   0  0  0  0  0  0
   -6.5757   -0.6887    0.3060 H   0  0  0  0  0  0
    3.1439    2.7247   -0.0694 N   0  3  0  0  0  0
    3.9407    3.0529    0.4573 H   0  0  0  0  0  0
    2.7554    3.5001   -0.5884 H   0  0  0  0  0  0
  1  8  1  0  0  0
  1 17  1  0  0  0
  2  6  1  0  0  0
  2 37  1  0  0  0
  3 15  1  0  0  0
  3 21  1  0  0  0
  4 20  1  0  0  0
  4 42  1  0  0  0
  5  6  1  0  0  0
  5  8  1  0  0  0
  5  9  1  0  0  0
  5 10  1  0  0  0
  6  7  1  0  0  0
  6 11  1  0  0  0
  7 12  1  0  0  0
  7 27  1  0  0  0
  7 45  1  0  0  0
  8 15  1  0  0  0
  8 28  1  0  0  0
  9 13  1  0  0  0
  9 29  1  0  0  0
  9 30  1  0  0  0
 10 14  2  0  0  0
 10 17  1  0  0  0
 11 16  1  0  0  0
 11 31  1  0  0  0
 11 32  1  0  0  0
 12 14  1  0  0  0
 12 33  1  0  0  0
 12 34  1  0  0  0
 13 35  1  0  0  0
 13 36  1  0  0  0
 13 45  1  0  0  0
 14 19  1  0  0  0
 15 16  2  0  0  0
 16 18  1  0  0  0
 17 20  2  0  0  0
 18 21  1  0  0  0
 18 23  2  0  0  0
 19 22  2  0  0  0
 19 38  1  0  0  0
 20 22  1  0  0  0
 21 24  2  0  0  0
 22 39  1  0  0  0
 23 25  1  0  0  0
 23 40  1  0  0  0
 24 26  1  0  0  0
 24 41  1  0  0  0
 25 26  2  0  0  0
 25 43  1  0  0  0
 26 44  1  0  0  0
 45 46  1  0  0  0
 45 47  1  0  0  0
M  CHG  1  45   1
M  END
> <LID>
L009147

> <PC_CID>
44211137

> <Names>


> <CAS_Numbers>


$$$$
11431767
                    3D
 Structure written by MMmdl.
 69 72  0  0  1  0            999 V2000
    0.6992   -7.1130    0.7388 S   0  0  0  0  0  0
    2.9216    5.5800   -0.5344 O   0  0  0  0  0  0
   -6.5186    2.5842   -0.7475 O   0  0  0  0  0  0
    4.6386    4.2467    0.1464 N   0  0  0  0  0  0
   -6.9110    1.2163    0.9917 N   0  0  0  0  0  0
    1.5808   -2.7541   -0.5334 C   0  0  0  0  0  0
   -0.7834   -3.4403   -0.4695 C   0  0  0  0  0  0
    1.3025   -1.5941    0.4365 C   0  0  0  0  0  0
   -1.1202   -2.2958    0.5005 C   0  0  0  0  0  0
   -0.1480   -1.1308    0.3456 C   0  0  0  0  0  0
    0.9680   -5.0526   -1.1730 C   0  0  0  0  0  0
   -0.5257    0.1549    0.1292 C   0  0  0  0  0  0
    0.4640    1.2411    0.0503 C   0  0  0  0  0  0
   -1.9438    0.5493    0.1175 C   0  0  0  0  0  0
    0.2566   -6.2928   -0.7376 C   0  0  0  0  0  0
    0.7602    1.8534   -1.1854 C   0  0  0  0  0  0
    1.1002    1.7062    1.2209 C   0  0  0  0  0  0
   -2.5734    0.9272   -1.0864 C   0  0  0  0  0  0
   -2.6796    0.5896    1.3206 C   0  0  0  0  0  0
   -0.7805   -6.9331   -1.3676 C   0  0  0  0  0  0
    2.3600    3.3424   -0.0891 C   0  0  0  0  0  0
    1.6991    2.9006   -1.2545 C   0  0  0  0  0  0
    2.0390    2.7533    1.1535 C   0  0  0  0  0  0
   -3.9254    1.3210   -1.0908 C   0  0  0  0  0  0
   -4.0317    0.9832    1.3186 C   0  0  0  0  0  0
   -1.2313   -8.0910   -0.6687 C   0  0  0  0  0  0
   -4.6704    1.3417    0.1088 C   0  0  0  0  0  0
   -0.5318   -8.3195    0.4864 C   0  0  0  0  0  0
    3.3383    4.4786   -0.1738 C   0  0  0  0  0  0
    5.6150    5.3460    0.1494 C   0  0  0  0  0  0
    5.2192    2.9206    0.4159 C   0  0  0  0  0  0
   -6.1058    1.7853    0.0906 C   0  0  0  0  0  0
    5.6447    6.0623    1.5068 C   0  0  0  0  0  0
    5.5050    2.1512   -0.8822 C   0  0  0  0  0  0
    2.6031   -3.1049   -0.3863 H   0  0  0  0  0  0
    1.5127   -2.4017   -1.5641 H   0  0  0  0  0  0
   -0.9661   -3.1218   -1.4971 H   0  0  0  0  0  0
   -1.4578   -4.2743   -0.2743 H   0  0  0  0  0  0
    2.0104   -0.7906    0.2378 H   0  0  0  0  0  0
    1.4902   -1.9187    1.4607 H   0  0  0  0  0  0
   -1.0566   -2.6554    1.5282 H   0  0  0  0  0  0
   -2.1561   -1.9970    0.3461 H   0  0  0  0  0  0
    0.7437   -4.8325   -2.2179 H   0  0  0  0  0  0
    2.0419   -5.2375   -1.1234 H   0  0  0  0  0  0
    0.2714    1.5190   -2.0884 H   0  0  0  0  0  0
    0.8665    1.2601    2.1766 H   0  0  0  0  0  0
   -2.0227    0.9129   -2.0152 H   0  0  0  0  0  0
   -2.2044    0.3205    2.2528 H   0  0  0  0  0  0
   -1.2291   -6.6136   -2.2969 H   0  0  0  0  0  0
    1.9150    3.3596   -2.2086 H   0  0  0  0  0  0
    2.5115    3.1027    2.0604 H   0  0  0  0  0  0
   -4.3879    1.6054   -2.0252 H   0  0  0  0  0  0
   -4.5667    1.0137    2.2566 H   0  0  0  0  0  0
   -2.0409   -8.7069   -1.0322 H   0  0  0  0  0  0
   -0.6629   -9.1194    1.2005 H   0  0  0  0  0  0
    6.6114    4.9679   -0.0837 H   0  0  0  0  0  0
    5.3973    6.0643   -0.6429 H   0  0  0  0  0  0
    6.1506    3.0320    0.9730 H   0  0  0  0  0  0
    4.5874    2.3247    1.0709 H   0  0  0  0  0  0
    6.3826    6.8647    1.5047 H   0  0  0  0  0  0
    4.6763    6.5043    1.7434 H   0  0  0  0  0  0
    5.9051    5.3738    2.3111 H   0  0  0  0  0  0
    5.9719    1.1902   -0.6661 H   0  0  0  0  0  0
    4.5907    1.9540   -1.4419 H   0  0  0  0  0  0
    6.1810    2.7095   -1.5306 H   0  0  0  0  0  0
   -7.8898    1.4624    1.0085 H   0  0  0  0  0  0
   -6.5417    0.5404    1.6437 H   0  0  0  0  0  0
    0.6311   -3.8773   -0.3317 N   0  3  1  0  0  0
    0.7481   -4.1769    0.6259 H   0  0  0  0  0  0
  1 15  1  0  0  0
  1 28  1  0  0  0
  2 29  2  0  0  0
  3 32  2  0  0  0
  4 29  1  0  0  0
  4 30  1  0  0  0
  4 31  1  0  0  0
  5 32  1  0  0  0
  5 66  1  0  0  0
  5 67  1  0  0  0
  6  8  1  0  0  0
  6 35  1  0  0  0
  6 36  1  0  0  0
  6 68  1  0  0  0
  7  9  1  0  0  0
  7 37  1  0  0  0
  7 38  1  0  0  0
  7 68  1  0  0  0
  8 10  1  0  0  0
  8 39  1  0  0  0
  8 40  1  0  0  0
  9 10  1  0  0  0
  9 41  1  0  0  0
  9 42  1  0  0  0
 10 12  2  0  0  0
 11 15  1  0  0  0
 11 43  1  0  0  0
 11 44  1  0  0  0
 11 68  1  0  0  0
 12 13  1  0  0  0
 12 14  1  0  0  0
 13 16  2  0  0  0
 13 17  1  0  0  0
 14 18  2  0  0  0
 14 19  1  0  0  0
 15 20  2  0  0  0
 16 22  1  0  0  0
 16 45  1  0  0  0
 17 23  2  0  0  0
 17 46  1  0  0  0
 18 24  1  0  0  0
 18 47  1  0  0  0
 19 25  2  0  0  0
 19 48  1  0  0  0
 20 26  1  0  0  0
 20 49  1  0  0  0
 21 22  2  0  0  0
 21 23  1  0  0  0
 21 29  1  0  0  0
 22 50  1  0  0  0
 23 51  1  0  0  0
 24 27  2  0  0  0
 24 52  1  0  0  0
 25 27  1  0  0  0
 25 53  1  0  0  0
 26 28  2  0  0  0
 26 54  1  0  0  0
 27 32  1  0  0  0
 28 55  1  0  0  0
 30 33  1  0  0  0
 30 56  1  0  0  0
 30 57  1  0  0  0
 31 34  1  0  0  0
 31 58  1  0  0  0
 31 59  1  0  0  0
 33 60  1  0  0  0
 33 61  1  0  0  0
 33 62  1  0  0  0
 34 63  1  0  0  0
 34 64  1  0  0  0
 34 65  1  0  0  0
 68 69  1  0  0  0
M  CHG  1  68   1
M  END
> <LID>
L023456

> <PC_CID>
11431767

> <Names>


> <CAS_Numbers>


$$$$
18936223
                    3D
 Structure written by MMmdl.
 57 60  0  0  1  0            999 V2000
   -4.1003   -2.8933   -0.8990 O   0  0  0  0  0  0
    5.6361   -0.1103    1.4670 O   0  0  0  0  0  0
    2.8798    0.1836    1.1252 N   0  0  0  0  0  0
    5.8781   -0.8938   -0.6182 N   0  0  0  0  0  0
   -0.9160    0.5231    0.7141 C   0  0  2  0  0  0
   -0.7622    1.1172   -0.7347 C   0  0  1  0  0  0
   -2.0527    1.2902    1.4466 C   0  0  0  0  0  0
    0.4237    0.7198    1.5044 C   0  0  0  0  0  0
   -0.6518    2.6588   -0.7172 C   0  0  0  0  0  0
    0.4079    0.4870   -1.5439 C   0  0  0  0  0  0
   -1.9373    2.8244    1.3669 C   0  0  0  0  0  0
    1.6076    0.3990    0.6597 C   0  0  0  0  0  0
    1.6393    0.2919   -0.6965 C   0  0  0  0  0  0
   -1.3131   -0.9729    0.5923 C   0  0  0  0  0  0
    2.9827   -0.0197   -1.0865 C   0  0  0  0  0  0
   -1.8070    4.7654   -0.1713 C   0  0  0  0  0  0
    3.7261   -0.0904    0.0718 C   0  0  0  0  0  0
   -2.5095   -1.3298   -0.0796 C   0  0  0  0  0  0
   -0.5195   -2.0238    1.1186 C   0  0  0  0  0  0
    3.4647   -0.2229   -2.5019 C   0  0  0  0  0  0
   -3.1907    5.3882    0.0658 C   0  0  0  0  0  0
   -2.9178   -2.6706   -0.2267 C   0  0  0  0  0  0
   -0.9126   -3.3672    0.9800 C   0  0  0  0  0  0
    5.1549   -0.3479    0.3606 C   0  0  0  0  0  0
   -2.1052   -3.6948    0.3130 C   0  0  0  0  0  0
   -4.5345   -4.2357   -1.0619 C   0  0  0  0  0  0
   -1.6702    0.9171   -1.3036 H   0  0  0  0  0  0
   -2.1008    0.9756    2.4899 H   0  0  0  0  0  0
   -3.0222    1.0329    1.0217 H   0  0  0  0  0  0
    0.4318    0.1639    2.4421 H   0  0  0  0  0  0
    0.5407    1.7577    1.8077 H   0  0  0  0  0  0
    0.2732    2.9812   -0.2369 H   0  0  0  0  0  0
   -0.6060    3.0192   -1.7459 H   0  0  0  0  0  0
    0.6491    1.0879   -2.4210 H   0  0  0  0  0  0
    0.1107   -0.4950   -1.9134 H   0  0  0  0  0  0
   -2.8283    3.2551    1.8225 H   0  0  0  0  0  0
   -1.0950    3.1915    1.9528 H   0  0  0  0  0  0
   -1.0683    5.1991    0.5045 H   0  0  0  0  0  0
   -1.4946    5.0346   -1.1811 H   0  0  0  0  0  0
    3.1646    0.2114    2.0943 H   0  0  0  0  0  0
   -3.1440   -0.5666   -0.5037 H   0  0  0  0  0  0
    0.4103   -1.8393    1.6317 H   0  0  0  0  0  0
    2.6786    0.0038   -3.2216 H   0  0  0  0  0  0
    4.3131    0.4284   -2.7125 H   0  0  0  0  0  0
    3.7719   -1.2578   -2.6523 H   0  0  0  0  0  0
   -3.1662    6.4594   -0.1361 H   0  0  0  0  0  0
   -3.9408    4.9477   -0.5917 H   0  0  0  0  0  0
   -3.5278    5.2646    1.0945 H   0  0  0  0  0  0
   -0.2924   -4.1523    1.3869 H   0  0  0  0  0  0
   -2.3723   -4.7370    0.2269 H   0  0  0  0  0  0
    6.8525   -1.1043   -0.4606 H   0  0  0  0  0  0
    5.4461   -1.0960   -1.5074 H   0  0  0  0  0  0
   -5.4772   -4.2449   -1.6088 H   0  0  0  0  0  0
   -3.8149   -4.8208   -1.6361 H   0  0  0  0  0  0
   -4.7076   -4.7185   -0.0991 H   0  0  0  0  0  0
   -1.8143    3.2857   -0.0392 N   0  3  1  0  0  0
   -2.6348    2.9602   -0.5304 H   0  0  0  0  0  0
  1 22  1  0  0  0
  1 26  1  0  0  0
  2 24  2  0  0  0
  3 12  1  0  0  0
  3 17  1  0  0  0
  3 40  1  0  0  0
  4 24  1  0  0  0
  4 51  1  0  0  0
  4 52  1  0  0  0
  5  6  1  0  0  0
  5  7  1  0  0  0
  5  8  1  0  0  0
  5 14  1  0  0  0
  6  9  1  0  0  0
  6 10  1  0  0  0
  6 27  1  0  0  0
  7 11  1  0  0  0
  7 28  1  0  0  0
  7 29  1  0  0  0
  8 12  1  0  0  0
  8 30  1  0  0  0
  8 31  1  0  0  0
  9 32  1  0  0  0
  9 33  1  0  0  0
  9 56  1  0  0  0
 10 13  1  0  0  0
 10 34  1  0  0  0
 10 35  1  0  0  0
 11 36  1  0  0  0
 11 37  1  0  0  0
 11 56  1  0  0  0
 12 13  2  0  0  0
 13 15  1  0  0  0
 14 18  2  0  0  0
 14 19  1  0  0  0
 15 17  2  0  0  0
 15 20  1  0  0  0
 16 21  1  0  0  0
 16 38  1  0  0  0
 16 39  1  0  0  0
 16 56  1  0  0  0
 17 24  1  0  0  0
 18 22  1  0  0  0
 18 41  1  0  0  0
 19 23  2  0  0  0
 19 42  1  0  0  0
 20 43  1  0  0  0
 20 44  1  0  0  0
 20 45  1  0  0  0
 21 46  1  0  0  0
 21 47  1  0  0  0
 21 48  1  0  0  0
 22 25  2  0  0  0
 23 25  1  0  0  0
 23 49  1  0  0  0
 25 50  1  0  0  0
 26 53  1  0  0  0
 26 54  1  0  0  0
 26 55  1  0  0  0
 56 57  1  0  0  0
M  CHG  1  56   1
M  END
> <LID>
L012492

> <PC_CID>
18936223

> <Names>


> <CAS_Numbers>


$$$$
11213965
                    3D
 Structure written by MMmdl.
 68 71  0  0  1  0            999 V2000
    0.2513   -8.1908   -0.0320 S   0  0  0  0  0  0
    4.3579    3.5408   -1.5576 O   0  0  0  0  0  0
   -5.3463    5.1209   -0.3470 O   0  0  0  0  0  0
    0.2586   -6.3428   -1.8673 N   0  0  0  0  0  0
    5.3080    2.3645    0.1463 N   0  0  0  0  0  0
   -6.3843    3.8347    1.1755 N   0  0  0  0  0  0
   -2.4870   -1.6962    0.5198 C   0  0  0  0  0  0
    0.0021   -2.0335    0.3891 C   0  0  0  0  0  0
   -2.6635   -2.8177   -0.5183 C   0  0  0  0  0  0
   -0.2231   -3.1413   -0.6520 C   0  0  0  0  0  0
   -1.1319   -1.0144    0.3650 C   0  0  0  0  0  0
   -0.9584    0.3242    0.2144 C   0  0  0  0  0  0
   -1.7683   -4.9386   -1.3951 C   0  0  0  0  0  0
    0.3743    0.9141    0.0057 C   0  0  0  0  0  0
   -2.0890    1.2675    0.2574 C   0  0  0  0  0  0
   -0.8683   -6.0961   -1.0757 C   0  0  0  0  0  0
    1.0699    0.7052   -1.2048 C   0  0  0  0  0  0
    0.9467    1.7391    0.9962 C   0  0  0  0  0  0
   -2.4239    2.0231   -0.8852 C   0  0  0  0  0  0
   -2.8194    1.4630    1.4491 C   0  0  0  0  0  0
   -1.0212   -6.9986   -0.0501 C   0  0  0  0  0  0
    2.9240    2.0815   -0.4023 C   0  0  0  0  0  0
    2.3355    1.2874   -1.4089 C   0  0  0  0  0  0
    2.2121    2.3223    0.7933 C   0  0  0  0  0  0
   -3.4892    2.9430   -0.8453 C   0  0  0  0  0  0
   -3.8854    2.3823    1.4912 C   0  0  0  0  0  0
   -4.2377    3.1225    0.3389 C   0  0  0  0  0  0
    4.2615    2.7194   -0.6449 C   0  0  0  0  0  0
    0.9423   -7.4058   -1.4417 C   0  0  0  0  0  0
    6.6161    3.0182   -0.0067 C   0  0  0  0  0  0
    5.2896    1.2701    1.1311 C   0  0  0  0  0  0
   -5.3574    4.1238    0.3718 C   0  0  0  0  0  0
    6.7039    4.2959    0.8395 C   0  0  0  0  0  0
    5.4602   -0.1007    0.4600 C   0  0  0  0  0  0
   -3.3179   -0.9993    0.4236 H   0  0  0  0  0  0
   -2.5485   -2.1105    1.5268 H   0  0  0  0  0  0
    0.0330   -2.4748    1.3861 H   0  0  0  0  0  0
    0.9811   -1.5820    0.2384 H   0  0  0  0  0  0
   -3.6093   -3.3288   -0.3335 H   0  0  0  0  0  0
   -2.7271   -2.3884   -1.5198 H   0  0  0  0  0  0
   -0.1550   -2.7251   -1.6586 H   0  0  0  0  0  0
    0.5784   -3.8742   -0.5594 H   0  0  0  0  0  0
   -2.8052   -5.2684   -1.3178 H   0  0  0  0  0  0
   -1.6335   -4.6077   -2.4263 H   0  0  0  0  0  0
    0.6318    0.0961   -1.9819 H   0  0  0  0  0  0
    0.4141    1.9279    1.9170 H   0  0  0  0  0  0
   -1.8624    1.8987   -1.7998 H   0  0  0  0  0  0
   -2.5597    0.9078    2.3387 H   0  0  0  0  0  0
   -1.8023   -7.0378    0.6949 H   0  0  0  0  0  0
    2.8554    1.1181   -2.3410 H   0  0  0  0  0  0
    2.6337    2.9567    1.5599 H   0  0  0  0  0  0
   -3.7287    3.5103   -1.7334 H   0  0  0  0  0  0
   -4.4207    2.5169    2.4198 H   0  0  0  0  0  0
    1.8403   -7.7245   -1.9503 H   0  0  0  0  0  0
    7.4165    2.3355    0.2822 H   0  0  0  0  0  0
    6.8154    3.2537   -1.0536 H   0  0  0  0  0  0
    6.0934    1.4117    1.8550 H   0  0  0  0  0  0
    4.3841    1.2798    1.7340 H   0  0  0  0  0  0
    7.6824    4.7643    0.7325 H   0  0  0  0  0  0
    5.9529    5.0256    0.5352 H   0  0  0  0  0  0
    6.5529    4.0800    1.8975 H   0  0  0  0  0  0
    5.4855   -0.8950    1.2062 H   0  0  0  0  0  0
    4.6395   -0.3183   -0.2236 H   0  0  0  0  0  0
    6.3904   -0.1492   -0.1069 H   0  0  0  0  0  0
   -7.1732    4.4629    1.2187 H   0  0  0  0  0  0
   -6.3717    2.9899    1.7272 H   0  0  0  0  0  0
   -1.5468   -3.7963   -0.4729 N   0  3  2  0  0  0
   -1.5506   -4.1848    0.4595 H   0  0  0  0  0  0
  1 21  1  0  0  0
  1 29  1  0  0  0
  2 28  2  0  0  0
  3 32  2  0  0  0
  4 16  1  0  0  0
  4 29  2  0  0  0
  5 28  1  0  0  0
  5 30  1  0  0  0
  5 31  1  0  0  0
  6 32  1  0  0  0
  6 65  1  0  0  0
  6 66  1  0  0  0
  7  9  1  0  0  0
  7 11  1  0  0  0
  7 35  1  0  0  0
  7 36  1  0  0  0
  8 10  1  0  0  0
  8 11  1  0  0  0
  8 37  1  0  0  0
  8 38  1  0  0  0
  9 39  1  0  0  0
  9 40  1  0  0  0
  9 67  1  0  0  0
 10 41  1  0  0  0
 10 42  1  0  0  0
 10 67  1  0  0  0
 11 12  2  0  0  0
 12 14  1  0  0  0
 12 15  1  0  0  0
 13 16  1  0  0  0
 13 43  1  0  0  0
 13 44  1  0  0  0
 13 67  1  0  0  0
 14 17  2  0  0  0
 14 18  1  0  0  0
 15 19  2  0  0  0
 15 20  1  0  0  0
 16 21  2  0  0  0
 17 23  1  0  0  0
 17 45  1  0  0  0
 18 24  2  0  0  0
 18 46  1  0  0  0
 19 25  1  0  0  0
 19 47  1  0  0  0
 20 26  2  0  0  0
 20 48  1  0  0  0
 21 49  1  0  0  0
 22 23  2  0  0  0
 22 24  1  0  0  0
 22 28  1  0  0  0
 23 50  1  0  0  0
 24 51  1  0  0  0
 25 27  2  0  0  0
 25 52  1  0  0  0
 26 27  1  0  0  0
 26 53  1  0  0  0
 27 32  1  0  0  0
 29 54  1  0  0  0
 30 33  1  0  0  0
 30 55  1  0  0  0
 30 56  1  0  0  0
 31 34  1  0  0  0
 31 57  1  0  0  0
 31 58  1  0  0  0
 33 59  1  0  0  0
 33 60  1  0  0  0
 33 61  1  0  0  0
 34 62  1  0  0  0
 34 63  1  0  0  0
 34 64  1  0  0  0
 67 68  1  0  0  0
M  CHG  1  67   1
M  END
> <LID>
L023463

> <PC_CID>
11213965

> <Names>


> <CAS_Numbers>


$$$$
22380734
                    3D
 Structure written by MMmdl.
 87 91  0  0  1  0            999 V2000
    5.2883   -2.5039    2.2266 O   0  0  0  0  0  0
    1.9695    2.6485    0.1513 O   0  0  0  0  0  0
   -4.5519   -0.7923    1.1043 O   0  0  0  0  0  0
    2.7574   -3.6688    0.0231 N   0  0  0  0  0  0
    4.6085   -4.4117    1.2133 N   0  0  0  0  0  0
   -5.2949    1.3414    0.7322 N   0  0  0  0  0  0
    3.3261   -2.5129    0.7511 C   0  0  0  0  0  0
    2.3271   -1.9301    1.7947 C   0  0  0  0  0  0
    3.8376   -1.4054   -0.2175 C   0  0  0  0  0  0
    2.7800   -0.5908    2.4071 C   0  0  0  0  0  0
    4.2229   -0.0895    0.4877 C   0  0  0  0  0  0
    4.5227   -3.1217    1.4893 C   0  0  0  0  0  0
    3.5686   -4.8578    0.3176 C   0  0  0  0  0  0
    3.3340    1.7588    1.9002 C   0  0  0  0  0  0
    1.6632   -3.7275   -0.8002 C   0  0  0  0  0  0
    3.2012    2.8522    0.8287 C   0  0  0  0  0  0
    1.2820   -4.9599   -1.3959 C   0  0  0  0  0  0
    0.8635   -2.5934   -1.0994 C   0  0  0  0  0  0
    0.1603   -5.0544   -2.2421 C   0  0  0  0  0  0
   -0.2599   -2.6845   -1.9434 C   0  0  0  0  0  0
   -0.6145   -3.9160   -2.5172 C   0  0  0  0  0  0
    1.7841    3.3471   -1.0182 C   0  0  0  0  0  0
    1.1626    2.6891   -2.1058 C   0  0  0  0  0  0
    2.1663    4.7030   -1.1543 C   0  0  0  0  0  0
    0.7696    1.2243   -2.0016 C   0  0  0  0  0  0
    0.9292    3.3857   -3.3104 C   0  0  0  0  0  0
   -6.6651    0.9713    1.1958 C   0  0  0  0  0  0
   -4.9290    2.7767    0.5297 C   0  0  0  0  0  0
    1.9326    5.3913   -2.3599 C   0  0  0  0  0  0
   -0.5632    1.0142   -1.3078 C   0  0  0  0  0  0
    1.3129    4.7334   -3.4379 C   0  0  0  0  0  0
   -4.3660    0.3401    0.6548 C   0  0  0  0  0  0
   -3.0525    0.5968   -0.0287 C   0  0  0  0  0  0
   -1.7647    1.1580   -2.0310 C   0  0  0  0  0  0
   -0.6098    0.6501    0.0539 C   0  0  0  0  0  0
   -6.7909    0.9639    2.7326 C   0  0  0  0  0  0
   -7.8227    1.7271    0.5199 C   0  0  0  0  0  0
   -5.4666    3.3768   -0.7847 C   0  0  0  0  0  0
   -5.2192    3.6712    1.7478 C   0  0  0  0  0  0
   -3.0033    0.9434   -1.3968 C   0  0  0  0  0  0
   -1.8478    0.4345    0.6880 C   0  0  0  0  0  0
    1.3383   -1.7806    1.3713 H   0  0  0  0  0  0
    2.1675   -2.6505    2.5988 H   0  0  0  0  0  0
    3.1040   -1.1693   -0.9826 H   0  0  0  0  0  0
    4.6998   -1.7714   -0.7777 H   0  0  0  0  0  0
    1.9698   -0.2044    3.0268 H   0  0  0  0  0  0
    3.6339   -0.7248    3.0716 H   0  0  0  0  0  0
    5.1292   -0.2075    1.0819 H   0  0  0  0  0  0
    4.4568    0.6491   -0.2780 H   0  0  0  0  0  0
    2.9740   -5.6318    0.8052 H   0  0  0  0  0  0
    4.0162   -5.2659   -0.5898 H   0  0  0  0  0  0
    5.3176   -5.0279    1.5834 H   0  0  0  0  0  0
    2.5837    1.9567    2.6670 H   0  0  0  0  0  0
    4.3047    1.8164    2.3946 H   0  0  0  0  0  0
    3.2160    3.8299    1.3111 H   0  0  0  0  0  0
    4.0373    2.8214    0.1289 H   0  0  0  0  0  0
    1.8372   -5.8684   -1.2207 H   0  0  0  0  0  0
    1.0780   -1.6207   -0.6950 H   0  0  0  0  0  0
   -0.1058   -6.0053   -2.6799 H   0  0  0  0  0  0
   -0.8524   -1.8054   -2.1499 H   0  0  0  0  0  0
   -1.4762   -3.9869   -3.1646 H   0  0  0  0  0  0
    2.6271    5.2355   -0.3363 H   0  0  0  0  0  0
    0.7226    0.7846   -2.9988 H   0  0  0  0  0  0
    1.5513    0.6762   -1.4756 H   0  0  0  0  0  0
    0.4569    2.8866   -4.1440 H   0  0  0  0  0  0
   -6.8508   -0.0584    0.8835 H   0  0  0  0  0  0
   -3.8472    2.8613    0.4438 H   0  0  0  0  0  0
    2.2239    6.4270   -2.4556 H   0  0  0  0  0  0
    1.1320    5.2622   -4.3622 H   0  0  0  0  0  0
   -7.7310    0.5033    3.0370 H   0  0  0  0  0  0
   -5.9877    0.3923    3.1980 H   0  0  0  0  0  0
   -6.7767    1.9647    3.1593 H   0  0  0  0  0  0
   -8.7772    1.2706    0.7834 H   0  0  0  0  0  0
   -7.8842    2.7693    0.8260 H   0  0  0  0  0  0
   -7.7427    1.6850   -0.5665 H   0  0  0  0  0  0
   -4.8944    4.2638   -1.0578 H   0  0  0  0  0  0
   -5.3934    2.6758   -1.6146 H   0  0  0  0  0  0
   -6.5044    3.6944   -0.7091 H   0  0  0  0  0  0
   -6.2828    3.8295    1.9127 H   0  0  0  0  0  0
   -4.7730    4.6568    1.6121 H   0  0  0  0  0  0
   -4.7913    3.2479    2.6570 H   0  0  0  0  0  0
   -1.7392    1.4245   -3.0776 H   0  0  0  0  0  0
    0.3023    0.5281    0.6174 H   0  0  0  0  0  0
   -3.9131    1.0341   -1.9706 H   0  0  0  0  0  0
   -1.8697    0.1494    1.7301 H   0  0  0  0  0  0
    3.1162    0.3957    1.3508 N   0  3  0  0  0  0
    2.2987    0.4689    0.7619 H   0  0  0  0  0  0
  1 12  2  0  0  0
  2 16  1  0  0  0
  2 22  1  0  0  0
  3 32  2  0  0  0
  4  7  1  0  0  0
  4 13  1  0  0  0
  4 15  1  0  0  0
  5 12  1  0  0  0
  5 13  1  0  0  0
  5 52  1  0  0  0
  6 27  1  0  0  0
  6 28  1  0  0  0
  6 32  1  0  0  0
  7  8  1  0  0  0
  7  9  1  0  0  0
  7 12  1  0  0  0
  8 10  1  0  0  0
  8 42  1  0  0  0
  8 43  1  0  0  0
  9 11  1  0  0  0
  9 44  1  0  0  0
  9 45  1  0  0  0
 10 46  1  0  0  0
 10 47  1  0  0  0
 10 86  1  0  0  0
 11 48  1  0  0  0
 11 49  1  0  0  0
 11 86  1  0  0  0
 13 50  1  0  0  0
 13 51  1  0  0  0
 14 16  1  0  0  0
 14 53  1  0  0  0
 14 54  1  0  0  0
 14 86  1  0  0  0
 15 17  2  0  0  0
 15 18  1  0  0  0
 16 55  1  0  0  0
 16 56  1  0  0  0
 17 19  1  0  0  0
 17 57  1  0  0  0
 18 20  2  0  0  0
 18 58  1  0  0  0
 19 21  2  0  0  0
 19 59  1  0  0  0
 20 21  1  0  0  0
 20 60  1  0  0  0
 21 61  1  0  0  0
 22 23  1  0  0  0
 22 24  2  0  0  0
 23 25  1  0  0  0
 23 26  2  0  0  0
 24 29  1  0  0  0
 24 62  1  0  0  0
 25 30  1  0  0  0
 25 63  1  0  0  0
 25 64  1  0  0  0
 26 31  1  0  0  0
 26 65  1  0  0  0
 27 36  1  0  0  0
 27 37  1  0  0  0
 27 66  1  0  0  0
 28 38  1  0  0  0
 28 39  1  0  0  0
 28 67  1  0  0  0
 29 31  2  0  0  0
 29 68  1  0  0  0
 30 34  2  0  0  0
 30 35  1  0  0  0
 31 69  1  0  0  0
 32 33  1  0  0  0
 33 40  2  0  0  0
 33 41  1  0  0  0
 34 40  1  0  0  0
 34 82  1  0  0  0
 35 41  2  0  0  0
 35 83  1  0  0  0
 36 70  1  0  0  0
 36 71  1  0  0  0
 36 72  1  0  0  0
 37 73  1  0  0  0
 37 74  1  0  0  0
 37 75  1  0  0  0
 38 76  1  0  0  0
 38 77  1  0  0  0
 38 78  1  0  0  0
 39 79  1  0  0  0
 39 80  1  0  0  0
 39 81  1  0  0  0
 40 84  1  0  0  0
 41 85  1  0  0  0
 86 87  1  0  0  0
M  CHG  1  86   1
M  END
> <LID>
L020695

> <PC_CID>
22380734

> <Names>


> <CAS_Numbers>


$$$$
44213172
                    3D
 Structure written by MMmdl.
 65 71  0  0  1  0            999 V2000
   -2.0490    1.5093   -1.9856 O   0  0  0  0  0  0
   -2.3822   -2.6143   -0.1647 O   0  0  0  0  0  0
   -2.4882    4.3573   -1.3194 O   0  0  0  0  0  0
    3.2859    1.1429   -2.3317 O   0  0  0  0  0  0
    0.6855    0.3403   -1.7106 N   0  0  0  0  0  0
    4.1261   -0.1303   -0.6641 N   0  0  0  0  0  0
   -2.9612   -0.2983   -0.7072 C   0  0  1  0  0  0
   -2.5683   -1.3228    0.4005 C   0  0  1  0  0  0
   -3.7826   -1.3899    1.3696 C   0  0  1  0  0  0
   -1.8418    0.1107   -1.7173 C   0  0  2  0  0  0
   -4.2248   -0.7921   -1.4596 C   0  0  0  0  0  0
   -3.2357    1.0325   -0.0660 C   0  0  0  0  0  0
   -1.2176   -1.0017    1.1097 C   0  0  0  0  0  0
   -4.0880   -0.0087    2.0295 C   0  0  0  0  0  0
   -5.4004   -1.0889   -0.5108 C   0  0  0  0  0  0
   -3.8471    1.2427    1.1811 C   0  0  0  0  0  0
   -0.4880   -0.0232   -1.0991 C   0  0  0  0  0  0
   -0.1747   -0.5035    0.1383 C   0  0  0  0  0  0
   -2.7315    2.0046   -0.9105 C   0  0  0  0  0  0
    1.2472   -0.4207    0.2997 C   0  0  0  0  0  0
   -6.0827   -2.3797    1.4874 C   0  0  0  0  0  0
   -4.0404    2.5910    1.5492 C   0  0  0  0  0  0
   -2.9441    3.3444   -0.5284 C   0  0  0  0  0  0
    1.7528    0.0900   -0.8755 C   0  0  0  0  0  0
   -3.6112    3.6325    0.6885 C   0  0  0  0  0  0
    2.0194   -0.8192    1.5339 C   0  0  0  0  0  0
    3.1156    0.4287   -1.3430 C   0  0  0  0  0  0
    5.5383    0.0544   -0.9713 C   0  0  0  0  0  0
    6.4546   -0.4412    0.1358 C   0  0  0  0  0  0
    7.6585   -1.0991   -0.1953 C   0  0  0  0  0  0
    6.1282   -0.2356    1.4954 C   0  0  0  0  0  0
    8.5202   -1.5585    0.8198 C   0  0  0  0  0  0
    6.9902   -0.6951    2.5100 C   0  0  0  0  0  0
    8.1856   -1.3582    2.1727 C   0  0  0  0  0  0
   -3.5570   -2.1037    2.1636 H   0  0  0  0  0  0
   -1.8858   -0.4769   -2.6350 H   0  0  0  0  0  0
   -3.9863   -1.6950   -2.0231 H   0  0  0  0  0  0
   -4.5367   -0.0569   -2.2027 H   0  0  0  0  0  0
   -0.8407   -1.8664    1.6575 H   0  0  0  0  0  0
   -1.3472   -0.2092    1.8460 H   0  0  0  0  0  0
   -3.4407    0.0979    2.9004 H   0  0  0  0  0  0
   -5.0992    0.0326    2.4309 H   0  0  0  0  0  0
   -5.8428   -0.1633   -0.1411 H   0  0  0  0  0  0
   -6.1879   -1.6021   -1.0639 H   0  0  0  0  0  0
   -1.9795   -3.1757    0.4811 H   0  0  0  0  0  0
    0.7633    0.7388   -2.6358 H   0  0  0  0  0  0
   -6.8040   -2.9492    0.9005 H   0  0  0  0  0  0
   -5.7265   -3.0287    2.2880 H   0  0  0  0  0  0
   -6.6114   -1.5384    1.9349 H   0  0  0  0  0  0
   -4.4939    2.8320    2.4994 H   0  0  0  0  0  0
   -3.7620    4.6607    0.9834 H   0  0  0  0  0  0
    1.3486   -1.0276    2.3671 H   0  0  0  0  0  0
    2.6109   -1.7140    1.3397 H   0  0  0  0  0  0
    2.6906   -0.0161    1.8386 H   0  0  0  0  0  0
   -2.0450    4.0399   -2.0917 H   0  0  0  0  0  0
    3.8997   -0.7267    0.1179 H   0  0  0  0  0  0
    5.7654   -0.4663   -1.9028 H   0  0  0  0  0  0
    5.7470    1.1126   -1.1368 H   0  0  0  0  0  0
    7.9257   -1.2561   -1.2302 H   0  0  0  0  0  0
    5.2194    0.2800    1.7687 H   0  0  0  0  0  0
    9.4388   -2.0638    0.5602 H   0  0  0  0  0  0
    6.7356   -0.5362    3.5476 H   0  0  0  0  0  0
    8.8469   -1.7099    2.9509 H   0  0  0  0  0  0
   -4.9622   -1.9353    0.6267 N   0  3  2  0  0  0
   -4.6076   -2.7801    0.1992 H   0  0  0  0  0  0
  1 10  1  0  0  0
  1 19  1  0  0  0
  2  8  1  0  0  0
  2 45  1  0  0  0
  3 23  1  0  0  0
  3 55  1  0  0  0
  4 27  2  0  0  0
  5 17  1  0  0  0
  5 24  1  0  0  0
  5 46  1  0  0  0
  6 27  1  0  0  0
  6 28  1  0  0  0
  6 56  1  0  0  0
  7  8  1  0  0  0
  7 10  1  0  0  0
  7 11  1  0  0  0
  7 12  1  0  0  0
  8  9  1  0  0  0
  8 13  1  0  0  0
  9 14  1  0  0  0
  9 35  1  0  0  0
  9 64  1  0  0  0
 10 17  1  0  0  0
 10 36  1  0  0  0
 11 15  1  0  0  0
 11 37  1  0  0  0
 11 38  1  0  0  0
 12 16  2  0  0  0
 12 19  1  0  0  0
 13 18  1  0  0  0
 13 39  1  0  0  0
 13 40  1  0  0  0
 14 16  1  0  0  0
 14 41  1  0  0  0
 14 42  1  0  0  0
 15 43  1  0  0  0
 15 44  1  0  0  0
 15 64  1  0  0  0
 16 22  1  0  0  0
 17 18  2  0  0  0
 18 20  1  0  0  0
 19 23  2  0  0  0
 20 24  2  0  0  0
 20 26  1  0  0  0
 21 47  1  0  0  0
 21 48  1  0  0  0
 21 49  1  0  0  0
 21 64  1  0  0  0
 22 25  2  0  0  0
 22 50  1  0  0  0
 23 25  1  0  0  0
 24 27  1  0  0  0
 25 51  1  0  0  0
 26 52  1  0  0  0
 26 53  1  0  0  0
 26 54  1  0  0  0
 28 29  1  0  0  0
 28 57  1  0  0  0
 28 58  1  0  0  0
 29 30  2  0  0  0
 29 31  1  0  0  0
 30 32  1  0  0  0
 30 59  1  0  0  0
 31 33  2  0  0  0
 31 60  1  0  0  0
 32 34  2  0  0  0
 32 61  1  0  0  0
 33 34  1  0  0  0
 33 62  1  0  0  0
 34 63  1  0  0  0
 64 65  1  0  0  0
M  CHG  1  64   1
M  END
> <LID>
L014404

> <PC_CID>
44213172

> <Names>


> <CAS_Numbers>


$$$$
21837410
                    3D
 Structure written by MMmdl.
 57 60  0  0  1  0            999 V2000
    0.7388    4.6164   -1.4680 O   0  0  0  0  0  0
    1.2574   -2.7627   -0.9857 N   0  0  0  0  0  0
   -1.0465    0.2430   -0.0260 C   0  0  1  0  0  0
   -1.8210   -0.4900    1.1271 C   0  0  2  0  0  0
    0.2387   -0.5488   -0.3999 C   0  0  0  0  0  0
   -2.0358    0.3001   -1.2246 C   0  0  0  0  0  0
   -1.9766   -2.0165    0.9161 C   0  0  0  0  0  0
    0.0398   -2.0681   -0.5759 C   0  0  2  0  0  0
   -3.1835    0.1871    1.4541 C   0  0  0  0  0  0
   -0.6366   -2.7044    0.6469 C   0  0  0  0  0  0
   -3.3172    1.0799   -0.8722 C   0  0  0  0  0  0
   -0.5705    1.6726    0.3488 C   0  0  0  0  0  0
   -0.1209    2.5495   -0.6705 C   0  0  0  0  0  0
   -4.9613   -0.6224   -0.1213 C   0  0  0  0  0  0
   -0.5054    2.1376    1.6867 C   0  0  0  0  0  0
    2.4425   -2.9523   -0.3642 C   0  0  0  0  0  0
    0.3370    3.8532   -0.3928 C   0  0  0  0  0  0
   -0.0524    3.4364    1.9808 C   0  0  0  0  0  0
    0.3622    4.2964    0.9500 C   0  0  0  0  0  0
    3.4325   -3.6825   -1.0567 C   0  0  0  0  0  0
    2.7369   -2.4618    0.9302 C   0  0  0  0  0  0
    4.6920   -3.9204   -0.4730 C   0  0  0  0  0  0
    3.9965   -2.6993    1.5146 C   0  0  0  0  0  0
    4.9751   -3.4284    0.8142 C   0  0  0  0  0  0
    1.2122    5.9314   -1.2154 C   0  0  0  0  0  0
   -1.2113   -0.4445    2.0280 H   0  0  0  0  0  0
    0.9787   -0.3744    0.3791 H   0  0  0  0  0  0
    0.6751   -0.1371   -1.3110 H   0  0  0  0  0  0
   -2.3137   -0.7023   -1.5459 H   0  0  0  0  0  0
   -1.5744    0.7408   -2.1065 H   0  0  0  0  0  0
   -2.4368   -2.4650    1.7972 H   0  0  0  0  0  0
   -2.6417   -2.2405    0.0875 H   0  0  0  0  0  0
   -0.6371   -2.2080   -1.4185 H   0  0  0  0  0  0
   -3.0027    1.1478    1.9337 H   0  0  0  0  0  0
   -3.7356   -0.3943    2.1935 H   0  0  0  0  0  0
   -0.8017   -3.7681    0.4708 H   0  0  0  0  0  0
   -0.0124   -2.6336    1.5355 H   0  0  0  0  0  0
   -3.0715    2.1105   -0.6147 H   0  0  0  0  0  0
   -3.9745    1.1400   -1.7406 H   0  0  0  0  0  0
    1.1968   -3.1749   -1.9057 H   0  0  0  0  0  0
   -0.1071    2.2292   -1.7004 H   0  0  0  0  0  0
   -5.4428   -1.0661    0.7507 H   0  0  0  0  0  0
   -4.4592   -1.4100   -0.6787 H   0  0  0  0  0  0
   -5.7506   -0.2290   -0.7626 H   0  0  0  0  0  0
   -0.7941    1.5251    2.5243 H   0  0  0  0  0  0
   -0.0180    3.7737    3.0064 H   0  0  0  0  0  0
    0.7044    5.2849    1.2160 H   0  0  0  0  0  0
    3.2317   -4.0675   -2.0461 H   0  0  0  0  0  0
    2.0165   -1.8994    1.4999 H   0  0  0  0  0  0
    5.4405   -4.4805   -1.0138 H   0  0  0  0  0  0
    4.2116   -2.3206    2.5029 H   0  0  0  0  0  0
    5.9405   -3.6099    1.2634 H   0  0  0  0  0  0
    1.4909    6.4006   -2.1587 H   0  0  0  0  0  0
    0.4418    6.5509   -0.7542 H   0  0  0  0  0  0
    2.0977    5.9211   -0.5784 H   0  0  0  0  0  0
   -4.0439    0.4732    0.2709 N   0  3  1  0  0  0
   -4.6737    1.1954    0.5915 H   0  0  0  0  0  0
  1 17  1  0  0  0
  1 25  1  0  0  0
  2  8  1  0  0  0
  2 16  1  0  0  0
  2 40  1  0  0  0
  3  4  1  0  0  0
  3  5  1  0  0  0
  3  6  1  0  0  0
  3 12  1  0  0  0
  4  7  1  0  0  0
  4  9  1  0  0  0
  4 26  1  0  0  0
  5  8  1  0  0  0
  5 27  1  0  0  0
  5 28  1  0  0  0
  6 11  1  0  0  0
  6 29  1  0  0  0
  6 30  1  0  0  0
  7 10  1  0  0  0
  7 31  1  0  0  0
  7 32  1  0  0  0
  8 10  1  0  0  0
  8 33  1  0  0  0
  9 34  1  0  0  0
  9 35  1  0  0  0
  9 56  1  0  0  0
 10 36  1  0  0  0
 10 37  1  0  0  0
 11 38  1  0  0  0
 11 39  1  0  0  0
 11 56  1  0  0  0
 12 13  2  0  0  0
 12 15  1  0  0  0
 13 17  1  0  0  0
 13 41  1  0  0  0
 14 42  1  0  0  0
 14 43  1  0  0  0
 14 44  1  0  0  0
 14 56  1  0  0  0
 15 18  2  0  0  0
 15 45  1  0  0  0
 16 20  2  0  0  0
 16 21  1  0  0  0
 17 19  2  0  0  0
 18 19  1  0  0  0
 18 46  1  0  0  0
 19 47  1  0  0  0
 20 22  1  0  0  0
 20 48  1  0  0  0
 21 23  2  0  0  0
 21 49  1  0  0  0
 22 24  2  0  0  0
 22 50  1  0  0  0
 23 24  1  0  0  0
 23 51  1  0  0  0
 24 52  1  0  0  0
 25 53  1  0  0  0
 25 54  1  0  0  0
 25 55  1  0  0  0
 56 57  1  0  0  0
M  CHG  1  56   1
M  END
> <LID>
L016309

> <PC_CID>
21837410

> <Names>


> <CAS_Numbers>


$$$$
44215692
                    3D
 Structure written by MMmdl.
 71 77  0  0  1  0            999 V2000
    0.4446    0.0350   -0.5019 O   0  0  0  0  0  0
   -1.5120    3.1002   -0.8163 O   0  0  0  0  0  0
   -0.1574    2.4933   -3.1715 O   0  0  0  0  0  0
   -0.7732    4.9475    1.3703 O   0  0  0  0  0  0
   -1.8725    0.7388   -0.4539 C   0  0  1  0  0  0
   -0.9029   -0.4492   -0.6637 C   0  0  2  0  0  0
   -1.2115   -1.4340    0.5064 C   0  0  1  0  0  0
   -1.8100    1.8766   -1.5171 C   0  0  2  0  0  0
   -3.3579    0.2854   -0.3680 C   0  0  0  0  0  0
   -1.4296    1.4310    0.7880 C   0  0  0  0  0  0
   -1.0681   -0.9519   -2.1186 C   0  0  0  0  0  0
   -0.9373   -0.7516    1.8965 C   0  0  0  0  0  0
   -3.6130   -0.8639    0.6105 C   0  0  0  0  0  0
   -1.0674    0.7818    1.9805 C   0  0  0  0  0  0
   -0.7129    0.1414   -3.1662 C   0  0  0  0  0  0
   -0.8227    1.5949   -2.6605 C   0  0  0  0  0  0
   -1.3069    2.7761    0.4979 C   0  0  0  0  0  0
   -2.8771   -3.1483    1.2382 C   0  0  0  0  0  0
   -3.9516   -4.0338    0.6115 C   0  0  0  0  0  0
   -0.6682    1.6319    3.0334 C   0  0  0  0  0  0
   -4.2767   -5.3887    1.2593 C   0  0  0  0  0  0
   -3.6343   -4.8171   -0.6725 C   0  0  0  0  0  0
   -0.9070    3.6046    1.5664 C   0  0  0  0  0  0
    1.5426   -0.8594   -0.6536 C   0  0  0  0  0  0
   -4.5114   -5.9541   -0.1434 C   0  0  0  0  0  0
   -0.6181    3.0355    2.8334 C   0  0  0  0  0  0
    2.8248   -0.0641   -0.3884 C   0  0  0  0  0  0
    4.0907   -0.9217   -0.5246 C   0  0  0  0  0  0
    5.3536   -0.1249   -0.2584 C   0  0  0  0  0  0
    5.8810   -0.0475    1.0479 C   0  0  0  0  0  0
    6.0034    0.5473   -1.3150 C   0  0  0  0  0  0
    7.0519    0.6955    1.2952 C   0  0  0  0  0  0
    7.1742    1.2902   -1.0670 C   0  0  0  0  0  0
    7.6989    1.3641    0.2379 C   0  0  0  0  0  0
   -0.5720   -2.3103    0.4085 H   0  0  0  0  0  0
   -2.7855    2.0121   -1.9851 H   0  0  0  0  0  0
   -3.6993   -0.0301   -1.3542 H   0  0  0  0  0  0
   -3.9941    1.1307   -0.1008 H   0  0  0  0  0  0
   -2.0904   -1.2846   -2.2928 H   0  0  0  0  0  0
   -0.4633   -1.8408   -2.2942 H   0  0  0  0  0  0
    0.0992   -0.9621    2.1620 H   0  0  0  0  0  0
   -1.5253   -1.2034    2.6949 H   0  0  0  0  0  0
   -3.5907   -0.5016    1.6387 H   0  0  0  0  0  0
   -4.6203   -1.2471    0.4500 H   0  0  0  0  0  0
   -1.3265    0.0224   -4.0593 H   0  0  0  0  0  0
    0.3200   -0.0030   -3.4842 H   0  0  0  0  0  0
   -3.1636   -2.8543    2.2488 H   0  0  0  0  0  0
   -1.9632   -3.7334    1.3477 H   0  0  0  0  0  0
   -4.8905   -3.4941    0.4758 H   0  0  0  0  0  0
   -0.3565    1.2124    3.9786 H   0  0  0  0  0  0
   -5.1563   -5.3876    1.9040 H   0  0  0  0  0  0
   -3.4167   -5.8418    1.7557 H   0  0  0  0  0  0
   -2.5830   -5.0998   -0.7513 H   0  0  0  0  0  0
   -3.9945   -4.3529   -1.5911 H   0  0  0  0  0  0
    1.4836   -1.6891    0.0491 H   0  0  0  0  0  0
    1.5796   -1.2742   -1.6600 H   0  0  0  0  0  0
   -4.1115   -6.9554   -0.3066 H   0  0  0  0  0  0
   -5.5511   -5.8734   -0.4651 H   0  0  0  0  0  0
   -0.3000    3.6748    3.6439 H   0  0  0  0  0  0
    2.8763    0.7761   -1.0823 H   0  0  0  0  0  0
    2.7803    0.3651    0.6136 H   0  0  0  0  0  0
   -0.9671    5.2026    0.4809 H   0  0  0  0  0  0
    4.0485   -1.7637    0.1676 H   0  0  0  0  0  0
    4.1457   -1.3510   -1.5259 H   0  0  0  0  0  0
    5.3886   -0.5562    1.8638 H   0  0  0  0  0  0
    5.6049    0.4965   -2.3178 H   0  0  0  0  0  0
    7.4535    0.7530    2.2962 H   0  0  0  0  0  0
    7.6695    1.8038   -1.8779 H   0  0  0  0  0  0
    8.5965    1.9340    0.4278 H   0  0  0  0  0  0
   -2.6131   -1.9405    0.4125 N   0  3  2  0  0  0
   -2.7155   -2.2541   -0.5423 H   0  0  0  0  0  0
  1  6  1  0  0  0
  1 24  1  0  0  0
  2  8  1  0  0  0
  2 17  1  0  0  0
  3 16  2  0  0  0
  4 23  1  0  0  0
  4 62  1  0  0  0
  5  6  1  0  0  0
  5  8  1  0  0  0
  5  9  1  0  0  0
  5 10  1  0  0  0
  6  7  1  0  0  0
  6 11  1  0  0  0
  7 12  1  0  0  0
  7 35  1  0  0  0
  7 70  1  0  0  0
  8 16  1  0  0  0
  8 36  1  0  0  0
  9 13  1  0  0  0
  9 37  1  0  0  0
  9 38  1  0  0  0
 10 14  2  0  0  0
 10 17  1  0  0  0
 11 15  1  0  0  0
 11 39  1  0  0  0
 11 40  1  0  0  0
 12 14  1  0  0  0
 12 41  1  0  0  0
 12 42  1  0  0  0
 13 43  1  0  0  0
 13 44  1  0  0  0
 13 70  1  0  0  0
 14 20  1  0  0  0
 15 16  1  0  0  0
 15 45  1  0  0  0
 15 46  1  0  0  0
 17 23  2  0  0  0
 18 19  1  0  0  0
 18 47  1  0  0  0
 18 48  1  0  0  0
 18 70  1  0  0  0
 19 21  1  0  0  0
 19 22  1  0  0  0
 19 49  1  0  0  0
 20 26  2  0  0  0
 20 50  1  0  0  0
 21 25  1  0  0  0
 21 51  1  0  0  0
 21 52  1  0  0  0
 22 25  1  0  0  0
 22 53  1  0  0  0
 22 54  1  0  0  0
 23 26  1  0  0  0
 24 27  1  0  0  0
 24 55  1  0  0  0
 24 56  1  0  0  0
 25 57  1  0  0  0
 25 58  1  0  0  0
 26 59  1  0  0  0
 27 28  1  0  0  0
 27 60  1  0  0  0
 27 61  1  0  0  0
 28 29  1  0  0  0
 28 63  1  0  0  0
 28 64  1  0  0  0
 29 30  2  0  0  0
 29 31  1  0  0  0
 30 32  1  0  0  0
 30 65  1  0  0  0
 31 33  2  0  0  0
 31 66  1  0  0  0
 32 34  2  0  0  0
 32 67  1  0  0  0
 33 34  1  0  0  0
 33 68  1  0  0  0
 34 69  1  0  0  0
 70 71  1  0  0  0
M  CHG  1  70   1
M  END
> <LID>
L022105

> <PC_CID>
44215692

> <Names>


> <CAS_Numbers>


$$$$
17986203
                    3D
 Structure written by MMmdl.
 68 71  0  0  1  0            999 V2000
    6.3933   -0.9269    0.5470 O   0  0  0  0  0  0
    6.3369   -0.5342   -1.6884 O   0  0  0  0  0  0
   -6.2214   -1.2077    0.2924 O   0  0  0  0  0  0
   -6.0532    0.0967    2.1492 O   0  0  0  0  0  0
    4.5953    0.1788   -0.2867 N   0  0  0  0  0  0
    0.1862    2.4945   -0.4887 N   0  0  0  0  0  0
    1.9225    2.5531    0.9089 N   0  0  0  0  0  0
    1.5780    0.3030   -0.1075 C   0  0  0  0  0  0
    2.5115   -0.2272    1.0381 C   0  0  0  0  0  0
    2.4154    0.1412   -1.4122 C   0  0  0  0  0  0
    3.9831    0.2578    1.0479 C   0  0  0  0  0  0
    3.8017    0.7987   -1.3489 C   0  0  0  0  0  0
    1.1884    1.7744    0.1113 C   0  0  0  0  0  0
    0.3399   -0.6178   -0.0463 C   0  0  0  0  0  0
   -0.8956    2.1740   -1.4379 C   0  0  2  0  0  0
   -0.4588   -0.6152    1.1238 C   0  0  0  0  0  0
    0.0176   -1.5442   -1.0707 C   0  0  0  0  0  0
    0.3071    3.7924    0.0105 C   0  0  0  0  0  0
    5.8223   -0.4394   -0.5723 C   0  0  0  0  0  0
    1.3736    3.8182    0.8625 C   0  0  0  0  0  0
   -2.1205    1.5096   -0.7999 C   0  0  0  0  0  0
   -0.4230    1.5964   -2.7825 C   0  0  0  0  0  0
   -1.5357   -1.5097    1.2729 C   0  0  0  0  0  0
   -1.0639   -2.4349   -0.9255 C   0  0  0  0  0  0
   -1.8385   -2.4231    0.2481 C   0  0  0  0  0  0
   -2.8687    0.5258   -1.4865 C   0  0  0  0  0  0
   -2.5676    1.9270    0.4741 C   0  0  0  0  0  0
    7.6446   -1.5905    0.4748 C   0  0  0  0  0  0
   -4.0160   -0.0451   -0.9031 C   0  0  0  0  0  0
   -3.7112    1.3537    1.0616 C   0  0  0  0  0  0
   -4.4457    0.3560    0.3835 C   0  0  0  0  0  0
    8.0560   -2.0446    1.8774 C   0  0  0  0  0  0
   -5.6419   -0.2460    1.0388 C   0  0  0  0  0  0
   -7.3690   -1.8856    0.7769 C   0  0  0  0  0  0
   -7.8112   -2.9279   -0.2530 C   0  0  0  0  0  0
    2.5619   -1.3143    0.9526 H   0  0  0  0  0  0
    2.0731   -0.0373    2.0183 H   0  0  0  0  0  0
    1.8951    0.5202   -2.2833 H   0  0  0  0  0  0
    2.5976   -0.9162   -1.6069 H   0  0  0  0  0  0
    4.5086   -0.3209    1.8067 H   0  0  0  0  0  0
    4.0614    1.2889    1.3878 H   0  0  0  0  0  0
    3.7167    1.8686   -1.1567 H   0  0  0  0  0  0
    4.2804    0.7110   -2.3251 H   0  0  0  0  0  0
   -1.3047    3.1413   -1.7338 H   0  0  0  0  0  0
   -0.2422    0.0741    1.9266 H   0  0  0  0  0  0
    0.5880   -1.6011   -1.9840 H   0  0  0  0  0  0
   -0.3658    4.5865   -0.2781 H   0  0  0  0  0  0
    1.7832    4.6362    1.4365 H   0  0  0  0  0  0
   -0.2144    0.5323   -2.7287 H   0  0  0  0  0  0
   -1.1888    1.7268   -3.5477 H   0  0  0  0  0  0
    0.4679    2.1124   -3.1409 H   0  0  0  0  0  0
   -2.1322   -1.4908    2.1730 H   0  0  0  0  0  0
   -1.2962   -3.1330   -1.7161 H   0  0  0  0  0  0
   -2.6675   -3.1063    0.3586 H   0  0  0  0  0  0
   -2.5775    0.1874   -2.4687 H   0  0  0  0  0  0
   -2.0350    2.6922    1.0182 H   0  0  0  0  0  0
    7.5701   -2.4514   -0.1910 H   0  0  0  0  0  0
    8.3979   -0.9177    0.0625 H   0  0  0  0  0  0
   -4.5501   -0.8006   -1.4606 H   0  0  0  0  0  0
   -4.0159    1.6892    2.0425 H   0  0  0  0  0  0
    9.0166   -2.5590    1.8520 H   0  0  0  0  0  0
    8.1497   -1.1941    2.5531 H   0  0  0  0  0  0
    7.3204   -2.7301    2.2990 H   0  0  0  0  0  0
   -7.1398   -2.3714    1.7264 H   0  0  0  0  0  0
   -8.1734   -1.1711    0.9567 H   0  0  0  0  0  0
   -8.6935   -3.4657    0.0942 H   0  0  0  0  0  0
   -8.0591   -2.4579   -1.2050 H   0  0  0  0  0  0
   -7.0232   -3.6594   -0.4337 H   0  0  0  0  0  0
  1 19  1  0  0  0
  1 28  1  0  0  0
  2 19  2  0  0  0
  3 33  1  0  0  0
  3 34  1  0  0  0
  4 33  2  0  0  0
  5 11  1  0  0  0
  5 12  1  0  0  0
  5 19  1  0  0  0
  6 13  1  0  0  0
  6 15  1  0  0  0
  6 18  1  0  0  0
  7 13  2  0  0  0
  7 20  1  0  0  0
  8  9  1  0  0  0
  8 10  1  0  0  0
  8 13  1  0  0  0
  8 14  1  0  0  0
  9 11  1  0  0  0
  9 36  1  0  0  0
  9 37  1  0  0  0
 10 12  1  0  0  0
 10 38  1  0  0  0
 10 39  1  0  0  0
 11 40  1  0  0  0
 11 41  1  0  0  0
 12 42  1  0  0  0
 12 43  1  0  0  0
 14 16  2  0  0  0
 14 17  1  0  0  0
 15 21  1  0  0  0
 15 22  1  0  0  0
 15 44  1  0  0  0
 16 23  1  0  0  0
 16 45  1  0  0  0
 17 24  2  0  0  0
 17 46  1  0  0  0
 18 20  2  0  0  0
 18 47  1  0  0  0
 20 48  1  0  0  0
 21 26  2  0  0  0
 21 27  1  0  0  0
 22 49  1  0  0  0
 22 50  1  0  0  0
 22 51  1  0  0  0
 23 25  2  0  0  0
 23 52  1  0  0  0
 24 25  1  0  0  0
 24 53  1  0  0  0
 25 54  1  0  0  0
 26 29  1  0  0  0
 26 55  1  0  0  0
 27 30  2  0  0  0
 27 56  1  0  0  0
 28 32  1  0  0  0
 28 57  1  0  0  0
 28 58  1  0  0  0
 29 31  2  0  0  0
 29 59  1  0  0  0
 30 31  1  0  0  0
 30 60  1  0  0  0
 31 33  1  0  0  0
 32 61  1  0  0  0
 32 62  1  0  0  0
 32 63  1  0  0  0
 34 35  1  0  0  0
 34 64  1  0  0  0
 34 65  1  0  0  0
 35 66  1  0  0  0
 35 67  1  0  0  0
 35 68  1  0  0  0
M  END
> <LID>
L022161

> <PC_CID>
17986203

> <Names>


> <CAS_Numbers>


$$$$
21837419
                    3D
 Structure written by MMmdl.
 58 61  0  0  1  0            999 V2000
   -1.7134   -4.1999   -1.3781 O   0  0  0  0  0  0
   -1.4363    0.4063    0.3464 C   0  0  2  0  0  0
   -1.8517    1.0138   -1.0378 C   0  0  1  0  0  0
   -1.9183    1.3894    1.4531 C   0  0  0  0  0  0
   -3.3408    1.4139   -1.0815 C   0  0  0  0  0  0
   -0.9298    2.1699   -1.4805 C   0  0  0  0  0  0
   -3.3953    1.8169    1.3283 C   0  0  0  0  0  0
    0.0850    0.3274    0.4662 C   0  0  0  0  0  0
   -1.9854   -1.0298    0.5036 C   0  0  0  0  0  0
    0.5293    1.7073   -1.5907 C   0  0  0  0  0  0
    0.9630    0.8966   -0.3817 C   0  0  0  0  0  0
   -5.0630    2.9082   -0.1481 C   0  0  0  0  0  0
   -1.6442   -2.0079   -0.4626 C   0  0  0  0  0  0
   -2.7807   -1.4364    1.6032 C   0  0  0  0  0  0
   -5.2724    4.2274    0.6098 C   0  0  0  0  0  0
    2.3643    0.7624   -0.1521 C   0  0  0  0  0  0
   -2.1017   -3.3380   -0.3750 C   0  0  0  0  0  0
   -3.2464   -2.7600    1.7047 C   0  0  0  0  0  0
   -2.9168   -3.7081    0.7206 C   0  0  0  0  0  0
    3.5705    0.6616    0.0099 C   0  0  0  0  0  0
    5.0075    0.5432    0.1905 C   0  0  0  0  0  0
   -2.1577   -5.5472   -1.3114 C   0  0  0  0  0  0
    5.5593   -0.6476    0.7076 C   0  0  0  0  0  0
    5.8539    1.6187   -0.1510 C   0  0  0  0  0  0
    6.9526   -0.7616    0.8823 C   0  0  0  0  0  0
    7.2471    1.5031    0.0244 C   0  0  0  0  0  0
    7.7964    0.3134    0.5409 C   0  0  0  0  0  0
   -1.7223    0.2594   -1.8128 H   0  0  0  0  0  0
   -1.3176    2.2988    1.4055 H   0  0  0  0  0  0
   -1.7178    0.9888    2.4472 H   0  0  0  0  0  0
   -3.5696    1.8418   -2.0585 H   0  0  0  0  0  0
   -3.9705    0.5285   -0.9779 H   0  0  0  0  0  0
   -0.9942    3.0005   -0.7775 H   0  0  0  0  0  0
   -1.2530    2.5651   -2.4442 H   0  0  0  0  0  0
   -4.0718    0.9829    1.5112 H   0  0  0  0  0  0
   -3.6047    2.5563    2.1004 H   0  0  0  0  0  0
    0.4531   -0.2338    1.3147 H   0  0  0  0  0  0
    1.1828    2.5708   -1.7246 H   0  0  0  0  0  0
    0.6498    1.0811   -2.4757 H   0  0  0  0  0  0
   -5.2726    3.0975   -1.2018 H   0  0  0  0  0  0
   -5.7837    2.1572    0.1787 H   0  0  0  0  0  0
   -1.0066   -1.7453   -1.2937 H   0  0  0  0  0  0
   -3.0468   -0.7594    2.3981 H   0  0  0  0  0  0
   -6.2655    4.6296    0.4081 H   0  0  0  0  0  0
   -5.1920    4.0998    1.6889 H   0  0  0  0  0  0
   -4.5452    4.9797    0.3028 H   0  0  0  0  0  0
   -3.8562   -3.0516    2.5472 H   0  0  0  0  0  0
   -3.2922   -4.7136    0.8348 H   0  0  0  0  0  0
   -1.7694   -6.0968   -2.1687 H   0  0  0  0  0  0
   -1.7942   -6.0429   -0.4103 H   0  0  0  0  0  0
   -3.2462   -5.6103   -1.3452 H   0  0  0  0  0  0
    4.9193   -1.4772    0.9720 H   0  0  0  0  0  0
    5.4409    2.5351   -0.5480 H   0  0  0  0  0  0
    7.3740   -1.6739    1.2783 H   0  0  0  0  0  0
    7.8942    2.3273   -0.2375 H   0  0  0  0  0  0
    8.8645    0.2254    0.6751 H   0  0  0  0  0  0
   -3.6801    2.3840   -0.0122 N   0  3  2  0  0  0
   -3.0610    3.1718   -0.1403 H   0  0  0  0  0  0
  1 17  1  0  0  0
  1 22  1  0  0  0
  2  3  1  0  0  0
  2  4  1  0  0  0
  2  8  1  0  0  0
  2  9  1  0  0  0
  3  5  1  0  0  0
  3  6  1  0  0  0
  3 28  1  0  0  0
  4  7  1  0  0  0
  4 29  1  0  0  0
  4 30  1  0  0  0
  5 31  1  0  0  0
  5 32  1  0  0  0
  5 57  1  0  0  0
  6 10  1  0  0  0
  6 33  1  0  0  0
  6 34  1  0  0  0
  7 35  1  0  0  0
  7 36  1  0  0  0
  7 57  1  0  0  0
  8 11  2  0  0  0
  8 37  1  0  0  0
  9 13  2  0  0  0
  9 14  1  0  0  0
 10 11  1  0  0  0
 10 38  1  0  0  0
 10 39  1  0  0  0
 11 16  1  0  0  0
 12 15  1  0  0  0
 12 40  1  0  0  0
 12 41  1  0  0  0
 12 57  1  0  0  0
 13 17  1  0  0  0
 13 42  1  0  0  0
 14 18  2  0  0  0
 14 43  1  0  0  0
 15 44  1  0  0  0
 15 45  1  0  0  0
 15 46  1  0  0  0
 16 20  3  0  0  0
 17 19  2  0  0  0
 18 19  1  0  0  0
 18 47  1  0  0  0
 19 48  1  0  0  0
 20 21  1  0  0  0
 21 23  2  0  0  0
 21 24  1  0  0  0
 22 49  1  0  0  0
 22 50  1  0  0  0
 22 51  1  0  0  0
 23 25  1  0  0  0
 23 52  1  0  0  0
 24 26  2  0  0  0
 24 53  1  0  0  0
 25 27  2  0  0  0
 25 54  1  0  0  0
 26 27  1  0  0  0
 26 55  1  0  0  0
 27 56  1  0  0  0
 57 58  1  0  0  0
M  CHG  1  57   1
M  END
> <LID>
L016312

> <PC_CID>
21837419

> <Names>


> <CAS_Numbers>


$$$$
10201299
                    3D
 Structure written by MMmdl.
 57 60  0  0  1  0            999 V2000
    5.8264   -0.2310   -0.2260 O   0  0  0  0  0  0
    5.1714   -0.8558   -2.3081 O   0  0  0  0  0  0
   -7.3865   -0.5222    0.2073 O   0  0  0  0  0  0
    3.6270   -0.6859   -0.5500 N   0  0  0  0  0  0
   -1.0400   -1.3449    0.1822 N   0  0  0  0  0  0
    0.5231   -1.5323    1.7599 N   0  0  0  0  0  0
    0.8878    0.3470    0.1211 C   0  0  0  0  0  0
    2.1692    0.6708    0.9535 C   0  0  0  0  0  0
    1.4051    0.0309   -1.3145 C   0  0  0  0  0  0
    3.3188   -0.3600    0.8516 C   0  0  0  0  0  0
    2.4625   -1.0839   -1.3449 C   0  0  0  0  0  0
    0.1195   -0.8471    0.6890 C   0  0  0  0  0  0
   -0.0128    1.5985    0.1934 C   0  0  0  0  0  0
   -0.2854    2.4147   -0.9337 C   0  0  0  0  0  0
   -0.5870    1.9604    1.4364 C   0  0  0  0  0  0
    4.9021   -0.6100   -1.1305 C   0  0  0  0  0  0
   -1.8191   -0.9249   -0.9789 C   0  0  0  0  0  0
   -1.3673   -2.4424    0.9733 C   0  0  0  0  0  0
   -0.4089   -2.5402    1.9464 C   0  0  0  0  0  0
   -1.1131    3.5484   -0.8182 C   0  0  0  0  0  0
   -1.4111    3.0957    1.5530 C   0  0  0  0  0  0
   -3.3018   -0.8201   -0.6647 C   0  0  0  0  0  0
   -1.6766    3.8906    0.4240 C   0  0  0  0  0  0
   -4.1915   -1.8351   -1.0759 C   0  0  0  0  0  0
   -3.7968    0.2982    0.0381 C   0  0  0  0  0  0
    7.1841   -0.0942   -0.6126 C   0  0  0  0  0  0
   -5.5651   -1.7339   -0.7812 C   0  0  0  0  0  0
   -5.1701    0.4000    0.3326 C   0  0  0  0  0  0
    8.0104    0.3489    0.5972 C   0  0  0  0  0  0
   -6.0553   -0.6169   -0.0767 C   0  0  0  0  0  0
    2.5694    1.6254    0.6077 H   0  0  0  0  0  0
    1.9215    0.8268    2.0040 H   0  0  0  0  0  0
    1.8786    0.9166   -1.7400 H   0  0  0  0  0  0
    0.5958   -0.2288   -1.9932 H   0  0  0  0  0  0
    4.1663    0.0338    1.4115 H   0  0  0  0  0  0
    3.0584   -1.2890    1.3564 H   0  0  0  0  0  0
    2.0565   -2.0125   -0.9417 H   0  0  0  0  0  0
    2.7236   -1.2987   -2.3819 H   0  0  0  0  0  0
    0.1186    2.1894   -1.9078 H   0  0  0  0  0  0
   -0.3989    1.3615    2.3156 H   0  0  0  0  0  0
   -1.4884    0.0411   -1.3459 H   0  0  0  0  0  0
   -1.6515   -1.6424   -1.7829 H   0  0  0  0  0  0
   -2.2416   -3.0483    0.7865 H   0  0  0  0  0  0
   -0.3138   -3.2539    2.7514 H   0  0  0  0  0  0
   -1.3159    4.1573   -1.6869 H   0  0  0  0  0  0
   -1.8415    3.3544    2.5092 H   0  0  0  0  0  0
   -2.3105    4.7607    0.5105 H   0  0  0  0  0  0
   -3.8236   -2.6957   -1.6152 H   0  0  0  0  0  0
   -3.1235    1.0806    0.3535 H   0  0  0  0  0  0
    7.5586   -1.0450   -0.9944 H   0  0  0  0  0  0
    7.2694    0.6408   -1.4141 H   0  0  0  0  0  0
   -6.2418   -2.5146   -1.0965 H   0  0  0  0  0  0
   -5.5385    1.2600    0.8724 H   0  0  0  0  0  0
    9.0607    0.4624    0.3286 H   0  0  0  0  0  0
    7.6584    1.3060    0.9830 H   0  0  0  0  0  0
    7.9484   -0.3824    1.4035 H   0  0  0  0  0  0
   -7.6105    0.2633    0.6822 H   0  0  0  0  0  0
  1 16  1  0  0  0
  1 26  1  0  0  0
  2 16  2  0  0  0
  3 30  1  0  0  0
  3 57  1  0  0  0
  4 10  1  0  0  0
  4 11  1  0  0  0
  4 16  1  0  0  0
  5 12  1  0  0  0
  5 17  1  0  0  0
  5 18  1  0  0  0
  6 12  2  0  0  0
  6 19  1  0  0  0
  7  8  1  0  0  0
  7  9  1  0  0  0
  7 12  1  0  0  0
  7 13  1  0  0  0
  8 10  1  0  0  0
  8 31  1  0  0  0
  8 32  1  0  0  0
  9 11  1  0  0  0
  9 33  1  0  0  0
  9 34  1  0  0  0
 10 35  1  0  0  0
 10 36  1  0  0  0
 11 37  1  0  0  0
 11 38  1  0  0  0
 13 14  2  0  0  0
 13 15  1  0  0  0
 14 20  1  0  0  0
 14 39  1  0  0  0
 15 21  2  0  0  0
 15 40  1  0  0  0
 17 22  1  0  0  0
 17 41  1  0  0  0
 17 42  1  0  0  0
 18 19  2  0  0  0
 18 43  1  0  0  0
 19 44  1  0  0  0
 20 23  2  0  0  0
 20 45  1  0  0  0
 21 23  1  0  0  0
 21 46  1  0  0  0
 22 24  2  0  0  0
 22 25  1  0  0  0
 23 47  1  0  0  0
 24 27  1  0  0  0
 24 48  1  0  0  0
 25 28  2  0  0  0
 25 49  1  0  0  0
 26 29  1  0  0  0
 26 50  1  0  0  0
 26 51  1  0  0  0
 27 30  2  0  0  0
 27 52  1  0  0  0
 28 30  1  0  0  0
 28 53  1  0  0  0
 29 54  1  0  0  0
 29 55  1  0  0  0
 29 56  1  0  0  0
M  END
> <LID>
L022163

> <PC_CID>
10201299

> <Names>


> <CAS_Numbers>


$$$$
9829682
                    3D
 Structure written by MMmdl.
 81 85  0  0  1  0            999 V2000
    5.2691   -2.0241    1.7624 O   0  0  0  0  0  0
   -1.4427   -2.1040    4.6766 O   0  0  0  0  0  0
   -6.0156    2.8883   -2.2062 O   0  0  0  0  0  0
    6.3403    0.6999   -0.2505 N   0  0  0  0  0  0
    7.1182   -0.7812    1.3610 N   0  0  0  0  0  0
   -7.0130    2.3083   -0.2419 N   0  0  0  0  0  0
    5.2234   -0.1962    0.1228 C   0  0  0  0  0  0
    4.7363   -1.0582   -1.0791 C   0  0  0  0  0  0
    4.0375    0.5817    0.7658 C   0  0  0  0  0  0
    3.4380   -1.8402   -0.7973 C   0  0  0  0  0  0
    2.7701   -0.2722    0.9675 C   0  0  0  0  0  0
    5.8524   -1.1142    1.1765 C   0  0  0  0  0  0
    7.5268    0.3266    0.5317 C   0  0  0  0  0  0
    1.0589   -1.6470   -0.1837 C   0  0  0  0  0  0
    6.3685    1.7295   -1.1547 C   0  0  0  0  0  0
   -0.1379   -0.6769   -0.2489 C   0  0  0  0  0  0
   -1.5077   -1.3938   -0.2329 C   0  0  2  0  0  0
    7.5652    2.4686   -1.3580 C   0  0  0  0  0  0
    5.2372    2.1118   -1.9230 C   0  0  0  0  0  0
   -2.6733   -0.4376   -0.4642 C   0  0  0  0  0  0
   -1.7327   -2.2656    1.0002 C   0  0  0  0  0  0
    7.6287    3.5319   -2.2788 C   0  0  0  0  0  0
    5.2974    3.1748   -2.8447 C   0  0  0  0  0  0
    6.4937    3.8878   -3.0250 C   0  0  0  0  0  0
   -3.5872   -0.6853   -1.5114 C   0  0  0  0  0  0
   -2.8574    0.6989    0.3545 C   0  0  0  0  0  0
   -1.4821   -1.7725    2.3011 C   0  0  0  0  0  0
   -2.2035   -3.5879    0.8444 C   0  0  0  0  0  0
   -4.6705    0.1862   -1.7344 C   0  0  0  0  0  0
   -3.9408    1.5700    0.1323 C   0  0  0  0  0  0
   -1.6925   -2.5916    3.4273 C   0  0  0  0  0  0
   -2.4153   -4.4067    1.9704 C   0  0  0  0  0  0
   -4.8628    1.3094   -0.9035 C   0  0  0  0  0  0
   -2.1591   -3.9101    3.2624 C   0  0  0  0  0  0
   -6.0142    2.2370   -1.1608 C   0  0  0  0  0  0
   -8.1516    3.2153   -0.4508 C   0  0  0  0  0  0
   -7.1400    1.4386    0.9401 C   0  0  0  0  0  0
   -9.2019    2.6090   -1.3948 C   0  0  0  0  0  0
   -6.7485    2.1563    2.2419 C   0  0  0  0  0  0
    5.5171   -1.7627   -1.3710 H   0  0  0  0  0  0
    4.5725   -0.4568   -1.9684 H   0  0  0  0  0  0
    3.7585    1.4521    0.1794 H   0  0  0  0  0  0
    4.3433    0.9934    1.7292 H   0  0  0  0  0  0
    3.6078   -2.6487   -0.0858 H   0  0  0  0  0  0
    3.1145   -2.3153   -1.7243 H   0  0  0  0  0  0
    1.9726    0.3799    1.3212 H   0  0  0  0  0  0
    2.9171   -1.0158    1.7510 H   0  0  0  0  0  0
    7.8608    1.1518    1.1624 H   0  0  0  0  0  0
    8.3466    0.0146   -0.1171 H   0  0  0  0  0  0
    0.9588   -2.3541   -1.0084 H   0  0  0  0  0  0
    1.0403   -2.2414    0.7310 H   0  0  0  0  0  0
    7.7410   -1.2435    2.0075 H   0  0  0  0  0  0
   -0.0853    0.0428    0.5661 H   0  0  0  0  0  0
   -0.0625   -0.0929   -1.1673 H   0  0  0  0  0  0
   -1.4928   -2.0707   -1.0887 H   0  0  0  0  0  0
    8.4694    2.2423   -0.8144 H   0  0  0  0  0  0
    4.2893    1.6108   -1.8369 H   0  0  0  0  0  0
    8.5526    4.0754   -2.4117 H   0  0  0  0  0  0
    4.4206    3.4433   -3.4154 H   0  0  0  0  0  0
    6.5405    4.7033   -3.7319 H   0  0  0  0  0  0
   -3.4637   -1.5466   -2.1514 H   0  0  0  0  0  0
   -2.1688    0.9142    1.1574 H   0  0  0  0  0  0
   -1.1269   -0.7635    2.4460 H   0  0  0  0  0  0
   -2.4067   -3.9816   -0.1408 H   0  0  0  0  0  0
   -5.3592   -0.0163   -2.5421 H   0  0  0  0  0  0
   -4.0517    2.4452    0.7543 H   0  0  0  0  0  0
   -2.7755   -5.4170    1.8426 H   0  0  0  0  0  0
   -2.3233   -4.5432    4.1221 H   0  0  0  0  0  0
   -1.6237   -2.7277    5.3631 H   0  0  0  0  0  0
   -8.6265    3.4505    0.5020 H   0  0  0  0  0  0
   -7.8070    4.1736   -0.8435 H   0  0  0  0  0  0
   -8.1757    1.1055    1.0200 H   0  0  0  0  0  0
   -6.5641    0.5187    0.8382 H   0  0  0  0  0  0
  -10.0455    3.2879   -1.5195 H   0  0  0  0  0  0
   -8.7871    2.4153   -2.3843 H   0  0  0  0  0  0
   -9.5897    1.6680   -1.0042 H   0  0  0  0  0  0
   -6.8587    1.4866    3.0950 H   0  0  0  0  0  0
   -5.7150    2.4965    2.2266 H   0  0  0  0  0  0
   -7.3787    3.0258    2.4279 H   0  0  0  0  0  0
    2.3641   -0.9465   -0.2936 N   0  3  0  0  0  0
    2.2443   -0.2273   -0.9926 H   0  0  0  0  0  0
  1 12  2  0  0  0
  2 31  1  0  0  0
  2 69  1  0  0  0
  3 35  2  0  0  0
  4  7  1  0  0  0
  4 13  1  0  0  0
  4 15  1  0  0  0
  5 12  1  0  0  0
  5 13  1  0  0  0
  5 52  1  0  0  0
  6 35  1  0  0  0
  6 36  1  0  0  0
  6 37  1  0  0  0
  7  8  1  0  0  0
  7  9  1  0  0  0
  7 12  1  0  0  0
  8 10  1  0  0  0
  8 40  1  0  0  0
  8 41  1  0  0  0
  9 11  1  0  0  0
  9 42  1  0  0  0
  9 43  1  0  0  0
 10 44  1  0  0  0
 10 45  1  0  0  0
 10 80  1  0  0  0
 11 46  1  0  0  0
 11 47  1  0  0  0
 11 80  1  0  0  0
 13 48  1  0  0  0
 13 49  1  0  0  0
 14 16  1  0  0  0
 14 50  1  0  0  0
 14 51  1  0  0  0
 14 80  1  0  0  0
 15 18  2  0  0  0
 15 19  1  0  0  0
 16 17  1  0  0  0
 16 53  1  0  0  0
 16 54  1  0  0  0
 17 20  1  0  0  0
 17 21  1  0  0  0
 17 55  1  0  0  0
 18 22  1  0  0  0
 18 56  1  0  0  0
 19 23  2  0  0  0
 19 57  1  0  0  0
 20 25  2  0  0  0
 20 26  1  0  0  0
 21 27  2  0  0  0
 21 28  1  0  0  0
 22 24  2  0  0  0
 22 58  1  0  0  0
 23 24  1  0  0  0
 23 59  1  0  0  0
 24 60  1  0  0  0
 25 29  1  0  0  0
 25 61  1  0  0  0
 26 30  2  0  0  0
 26 62  1  0  0  0
 27 31  1  0  0  0
 27 63  1  0  0  0
 28 32  2  0  0  0
 28 64  1  0  0  0
 29 33  2  0  0  0
 29 65  1  0  0  0
 30 33  1  0  0  0
 30 66  1  0  0  0
 31 34  2  0  0  0
 32 34  1  0  0  0
 32 67  1  0  0  0
 33 35  1  0  0  0
 34 68  1  0  0  0
 36 38  1  0  0  0
 36 70  1  0  0  0
 36 71  1  0  0  0
 37 39  1  0  0  0
 37 72  1  0  0  0
 37 73  1  0  0  0
 38 74  1  0  0  0
 38 75  1  0  0  0
 38 76  1  0  0  0
 39 77  1  0  0  0
 39 78  1  0  0  0
 39 79  1  0  0  0
 80 81  1  0  0  0
M  CHG  1  80   1
M  END
> <LID>
L020886

> <PC_CID>
9829682

> <Names>


> <CAS_Numbers>


$$$$
11374074
                    3D
 Structure written by MMmdl.
 66 69  0  0  1  0            999 V2000
    4.2179   -0.5921    0.8473 O   0  0  0  0  0  0
   -3.5926   -1.1553    2.8655 O   0  0  0  0  0  0
   -5.1523   -0.8071    1.2422 N   0  0  0  0  0  0
    0.2897    2.4794   -2.2796 C   0  0  0  0  0  0
   -0.9892    3.3101   -2.3676 C   0  0  0  0  0  0
    1.4185    3.1045   -3.0970 C   0  0  0  0  0  0
   -0.7256    4.7777   -1.9932 C   0  0  0  0  0  0
    1.6271    4.5813   -2.7173 C   0  0  0  0  0  0
    0.4102    1.3354   -1.5572 C   0  0  0  0  0  0
   -0.6966    0.8150   -0.7375 C   0  0  0  0  0  0
    1.6480    0.5366   -1.5543 C   0  0  0  0  0  0
   -1.0948    1.4852    0.4393 C   0  0  0  0  0  0
   -1.3308   -0.3946   -1.0900 C   0  0  0  0  0  0
    2.3684    0.3589   -0.3541 C   0  0  0  0  0  0
    2.1013   -0.0986   -2.7316 C   0  0  0  0  0  0
   -2.7904   -0.2233    0.8639 C   0  0  0  0  0  0
   -2.1343    0.9686    1.2363 C   0  0  0  0  0  0
   -2.3704   -0.9124   -0.2940 C   0  0  0  0  0  0
    3.5329   -0.4338   -0.3283 C   0  0  0  0  0  0
   -3.8850   -0.7720    1.7322 C   0  0  0  0  0  0
    3.2705   -0.8832   -2.7125 C   0  0  0  0  0  0
    3.9879   -1.0490   -1.5128 C   0  0  0  0  0  0
   -6.2491   -1.3498    2.0579 C   0  0  0  0  0  0
   -5.5833   -0.2151   -0.0357 C   0  0  0  0  0  0
   -6.7761   -0.3193    3.0689 C   0  0  0  0  0  0
   -5.8136   -1.2743   -1.1258 C   0  0  0  0  0  0
    4.1575   -1.8286    1.4352 C   0  0  0  0  0  0
    2.9356   -2.3361    1.9283 C   0  0  0  0  0  0
    5.3342   -2.5939    1.5639 C   0  0  0  0  0  0
    2.8915   -3.6061    2.5358 C   0  0  0  0  0  0
    5.2897   -3.8640    2.1715 C   0  0  0  0  0  0
    4.0683   -4.3706    2.6565 C   0  0  0  0  0  0
   -1.7959    2.9140   -1.7534 H   0  0  0  0  0  0
   -1.3498    3.2574   -3.3957 H   0  0  0  0  0  0
    2.3636    2.5782   -2.9745 H   0  0  0  0  0  0
    1.1580    3.0269   -4.1533 H   0  0  0  0  0  0
   -0.4587    4.8544   -0.9381 H   0  0  0  0  0  0
   -1.6277    5.3729   -2.1373 H   0  0  0  0  0  0
    2.3720    5.0379   -3.3696 H   0  0  0  0  0  0
    2.0101    4.6549   -1.6983 H   0  0  0  0  0  0
   -0.6003    2.3990    0.7348 H   0  0  0  0  0  0
   -1.0167   -0.9328   -1.9726 H   0  0  0  0  0  0
    2.0246    0.8272    0.5568 H   0  0  0  0  0  0
    1.5510    0.0155   -3.6542 H   0  0  0  0  0  0
   -2.4286    1.4935    2.1339 H   0  0  0  0  0  0
   -2.8304   -1.8493   -0.5693 H   0  0  0  0  0  0
    3.6146   -1.3618   -3.6176 H   0  0  0  0  0  0
    4.8830   -1.6535   -1.4994 H   0  0  0  0  0  0
   -7.0720   -1.6705    1.4187 H   0  0  0  0  0  0
   -5.9240   -2.2513    2.5803 H   0  0  0  0  0  0
   -6.5141    0.3298    0.1273 H   0  0  0  0  0  0
   -4.8843    0.5397   -0.3964 H   0  0  0  0  0  0
   -7.6011   -0.7347    3.6478 H   0  0  0  0  0  0
   -6.0009   -0.0157    3.7729 H   0  0  0  0  0  0
   -7.1425    0.5767    2.5673 H   0  0  0  0  0  0
   -6.1342   -0.8027   -2.0548 H   0  0  0  0  0  0
   -4.9105   -1.8411   -1.3431 H   0  0  0  0  0  0
   -6.5876   -1.9859   -0.8390 H   0  0  0  0  0  0
    2.0310   -1.7524    1.8402 H   0  0  0  0  0  0
    6.2720   -2.2069    1.1933 H   0  0  0  0  0  0
    1.9551   -3.9932    2.9100 H   0  0  0  0  0  0
    6.1927   -4.4491    2.2660 H   0  0  0  0  0  0
    4.0343   -5.3444    3.1227 H   0  0  0  0  0  0
    0.3652    5.3463   -2.8140 N   0  3  0  0  0  0
    0.5346    6.2986   -2.5224 H   0  0  0  0  0  0
    0.0684    5.3511   -3.7795 H   0  0  0  0  0  0
  1 19  1  0  0  0
  1 27  1  0  0  0
  2 20  2  0  0  0
  3 20  1  0  0  0
  3 23  1  0  0  0
  3 24  1  0  0  0
  4  5  1  0  0  0
  4  6  1  0  0  0
  4  9  2  0  0  0
  5  7  1  0  0  0
  5 33  1  0  0  0
  5 34  1  0  0  0
  6  8  1  0  0  0
  6 35  1  0  0  0
  6 36  1  0  0  0
  7 37  1  0  0  0
  7 38  1  0  0  0
  7 64  1  0  0  0
  8 39  1  0  0  0
  8 40  1  0  0  0
  8 64  1  0  0  0
  9 10  1  0  0  0
  9 11  1  0  0  0
 10 12  2  0  0  0
 10 13  1  0  0  0
 11 14  2  0  0  0
 11 15  1  0  0  0
 12 17  1  0  0  0
 12 41  1  0  0  0
 13 18  2  0  0  0
 13 42  1  0  0  0
 14 19  1  0  0  0
 14 43  1  0  0  0
 15 21  2  0  0  0
 15 44  1  0  0  0
 16 17  2  0  0  0
 16 18  1  0  0  0
 16 20  1  0  0  0
 17 45  1  0  0  0
 18 46  1  0  0  0
 19 22  2  0  0  0
 21 22  1  0  0  0
 21 47  1  0  0  0
 22 48  1  0  0  0
 23 25  1  0  0  0
 23 49  1  0  0  0
 23 50  1  0  0  0
 24 26  1  0  0  0
 24 51  1  0  0  0
 24 52  1  0  0  0
 25 53  1  0  0  0
 25 54  1  0  0  0
 25 55  1  0  0  0
 26 56  1  0  0  0
 26 57  1  0  0  0
 26 58  1  0  0  0
 27 28  2  0  0  0
 27 29  1  0  0  0
 28 30  1  0  0  0
 28 59  1  0  0  0
 29 31  2  0  0  0
 29 60  1  0  0  0
 30 32  2  0  0  0
 30 61  1  0  0  0
 31 32  1  0  0  0
 31 62  1  0  0  0
 32 63  1  0  0  0
 64 65  1  0  0  0
 64 66  1  0  0  0
M  CHG  1  64   1
M  END
> <LID>
L023454

> <PC_CID>
11374074

> <Names>


> <CAS_Numbers>


$$$$
44213851
                    3D
 Structure written by MMmdl.
 42 44  0  0  1  0            999 V2000
   -2.4042   -1.1513   -0.3132 S   0  0  0  0  0  0
   -3.5513   -1.9535    0.1372 O   0  0  0  0  0  0
   -1.4324   -1.7776   -1.2222 O   0  0  0  0  0  0
    4.4340    0.1410   -1.2721 O   0  0  0  0  0  0
    0.0369    1.4484    0.5958 C   0  0  2  0  0  0
   -1.1903    0.9064    1.4211 C   0  0  1  0  0  0
   -1.5269   -0.5978    1.2449 C   0  0  2  0  0  0
   -0.4516    2.0814   -0.7480 C   0  0  0  0  0  0
   -0.2895   -1.4696    1.4894 C   0  0  0  0  0  0
    1.1100    0.3673    0.3460 C   0  0  0  0  0  0
    0.9502   -0.9845    0.7595 C   0  0  0  0  0  0
   -0.7451    1.1506   -1.9391 C   0  0  0  0  0  0
    0.7017    2.6309    1.3637 C   0  0  0  0  0  0
   -3.1056    0.3647   -1.1077 C   0  0  0  0  0  0
   -2.2359    0.9311   -2.2421 C   0  0  0  0  0  0
    2.2956    0.7236   -0.3438 C   0  0  0  0  0  0
    1.9643   -1.9295    0.4954 C   0  0  0  0  0  0
    3.3009   -0.2255   -0.6064 C   0  0  0  0  0  0
    3.1362   -1.5546   -0.1835 C   0  0  0  0  0  0
   -2.0622    1.5227    1.2211 H   0  0  0  0  0  0
   -2.2532   -0.8606    2.0156 H   0  0  0  0  0  0
   -1.2936    2.7531   -0.5758 H   0  0  0  0  0  0
    0.3353    2.7449   -1.1094 H   0  0  0  0  0  0
   -0.5020   -2.5051    1.2192 H   0  0  0  0  0  0
   -0.0519   -1.4847    2.5535 H   0  0  0  0  0  0
   -0.2075    0.2099   -1.8636 H   0  0  0  0  0  0
   -0.3202    1.6142   -2.8305 H   0  0  0  0  0  0
    1.1950    2.3041    2.2799 H   0  0  0  0  0  0
    1.4723    3.1332    0.7790 H   0  0  0  0  0  0
   -0.0291    3.3968    1.6273 H   0  0  0  0  0  0
   -3.3585    1.1091   -0.3595 H   0  0  0  0  0  0
   -4.0610    0.0674   -1.5410 H   0  0  0  0  0  0
   -2.6745    1.8717   -2.5771 H   0  0  0  0  0  0
   -2.3055    0.2571   -3.0969 H   0  0  0  0  0  0
   -1.8276    0.8247    3.3786 H   0  0  0  0  0  0
   -0.2042    0.5861    3.1936 H   0  0  0  0  0  0
    2.4407    1.7365   -0.6876 H   0  0  0  0  0  0
    1.8445   -2.9554    0.8119 H   0  0  0  0  0  0
    3.9041   -2.2880   -0.3822 H   0  0  0  0  0  0
    4.4451    1.0529   -1.5187 H   0  0  0  0  0  0
   -1.0021    1.1176    2.8758 N   0  3  0  0  0  0
   -0.8362    2.0986    3.0507 H   0  0  0  0  0  0
  1  2  2  0  0  0
  1  3  2  0  0  0
  1  7  1  0  0  0
  1 14  1  0  0  0
  4 18  1  0  0  0
  4 40  1  0  0  0
  5  6  1  0  0  0
  5  8  1  0  0  0
  5 10  1  0  0  0
  5 13  1  0  0  0
  6  7  1  0  0  0
  6 20  1  0  0  0
  6 41  1  0  0  0
  7  9  1  0  0  0
  7 21  1  0  0  0
  8 12  1  0  0  0
  8 22  1  0  0  0
  8 23  1  0  0  0
  9 11  1  0  0  0
  9 24  1  0  0  0
  9 25  1  0  0  0
 10 11  2  0  0  0
 10 16  1  0  0  0
 11 17  1  0  0  0
 12 15  1  0  0  0
 12 26  1  0  0  0
 12 27  1  0  0  0
 13 28  1  0  0  0
 13 29  1  0  0  0
 13 30  1  0  0  0
 14 15  1  0  0  0
 14 31  1  0  0  0
 14 32  1  0  0  0
 15 33  1  0  0  0
 15 34  1  0  0  0
 16 18  2  0  0  0
 16 37  1  0  0  0
 17 19  2  0  0  0
 17 38  1  0  0  0
 18 19  1  0  0  0
 19 39  1  0  0  0
 35 41  1  0  0  0
 36 41  1  0  0  0
 41 42  1  0  0  0
M  CHG  1  41   1
M  END
> <LID>
L016176

> <PC_CID>
44213851

> <Names>


> <CAS_Numbers>


$$$$
15411183
                    3D
 Structure written by MMmdl.
 53 56  0  0  1  0            999 V2000
   -1.7708   -4.1158   -0.8906 O   0  0  0  0  0  0
   -2.4193    1.3770   -0.2389 C   0  0  0  0  0  0
   -2.2867    2.8289   -0.6900 C   0  0  0  0  0  0
   -1.0449    3.5417   -0.1326 C   0  0  0  0  0  0
   -1.3487    0.6460    0.1586 C   0  0  0  0  0  0
    0.1685    2.6412   -0.0151 C   0  0  0  0  0  0
    0.0070    1.2471    0.1518 C   0  0  0  0  0  0
   -3.8455    0.8240   -0.2626 C   0  0  0  0  0  0
   -1.5267   -0.7515    0.5886 C   0  0  0  0  0  0
    1.1642    0.4420    0.2815 C   0  0  0  0  0  0
    1.4572    3.2081   -0.0423 C   0  0  0  0  0  0
    2.4647    0.9948    0.2539 C   0  0  0  0  0  0
    2.5937    2.3910    0.0903 C   0  0  0  0  0  0
   -1.5619   -1.7840   -0.3716 C   0  0  0  0  0  0
   -1.6182   -1.0576    1.9619 C   0  0  0  0  0  0
    3.6573    0.1339    0.3910 C   0  0  0  0  0  0
   -5.3724   -0.7862   -1.3147 C   0  0  0  0  0  0
   -4.1211    0.7677   -2.7377 C   0  0  0  0  0  0
   -1.7211   -3.1209    0.0412 C   0  0  0  0  0  0
   -1.7731   -2.3960    2.3720 C   0  0  0  0  0  0
   -1.8285   -3.4268    1.4129 C   0  0  0  0  0  0
    3.7088   -1.1397   -0.2227 C   0  0  0  0  0  0
    4.7789    0.5607    1.1398 C   0  0  0  0  0  0
    4.8448   -1.9622   -0.0930 C   0  0  0  0  0  0
    5.9170   -0.2584    1.2729 C   0  0  0  0  0  0
    5.9511   -1.5219    0.6558 C   0  0  0  0  0  0
   -2.2317    2.8322   -1.7777 H   0  0  0  0  0  0
   -3.1745    3.4032   -0.4241 H   0  0  0  0  0  0
   -1.2647    3.9131    0.8689 H   0  0  0  0  0  0
   -0.8106    4.4152   -0.7424 H   0  0  0  0  0  0
   -3.9941    0.2128    0.6285 H   0  0  0  0  0  0
   -4.5729    1.6327   -0.1805 H   0  0  0  0  0  0
    1.0622   -0.6252    0.4091 H   0  0  0  0  0  0
    1.5792    4.2746   -0.1631 H   0  0  0  0  0  0
    3.5723    2.8471    0.0583 H   0  0  0  0  0  0
   -1.4676   -1.5524   -1.4227 H   0  0  0  0  0  0
   -1.5732   -0.2697    2.6999 H   0  0  0  0  0  0
   -5.5234   -1.4425   -2.1725 H   0  0  0  0  0  0
   -5.3221   -1.4166   -0.4261 H   0  0  0  0  0  0
   -6.2425   -0.1345   -1.2245 H   0  0  0  0  0  0
   -4.8181    1.6058   -2.6992 H   0  0  0  0  0  0
   -4.4040    0.1291   -3.5753 H   0  0  0  0  0  0
   -3.1255    1.1499   -2.9574 H   0  0  0  0  0  0
   -1.8486   -2.6327    3.4232 H   0  0  0  0  0  0
   -1.9487   -4.4508    1.7353 H   0  0  0  0  0  0
    2.8736   -1.4940   -0.8087 H   0  0  0  0  0  0
    4.7704    1.5241    1.6282 H   0  0  0  0  0  0
    4.8671   -2.9308   -0.5703 H   0  0  0  0  0  0
    6.7634    0.0833    1.8503 H   0  0  0  0  0  0
    6.8231   -2.1513    0.7565 H   0  0  0  0  0  0
   -1.8566   -4.9778   -0.5125 H   0  0  0  0  0  0
   -4.1311    0.0042   -1.4691 N   0  3  0  0  0  0
   -3.3830   -0.6717   -1.5352 H   0  0  0  0  0  0
  1 19  1  0  0  0
  1 51  1  0  0  0
  2  3  1  0  0  0
  2  5  2  0  0  0
  2  8  1  0  0  0
  3  4  1  0  0  0
  3 27  1  0  0  0
  3 28  1  0  0  0
  4  6  1  0  0  0
  4 29  1  0  0  0
  4 30  1  0  0  0
  5  7  1  0  0  0
  5  9  1  0  0  0
  6  7  2  0  0  0
  6 11  1  0  0  0
  7 10  1  0  0  0
  8 31  1  0  0  0
  8 32  1  0  0  0
  8 52  1  0  0  0
  9 14  2  0  0  0
  9 15  1  0  0  0
 10 12  2  0  0  0
 10 33  1  0  0  0
 11 13  2  0  0  0
 11 34  1  0  0  0
 12 13  1  0  0  0
 12 16  1  0  0  0
 13 35  1  0  0  0
 14 19  1  0  0  0
 14 36  1  0  0  0
 15 20  2  0  0  0
 15 37  1  0  0  0
 16 22  2  0  0  0
 16 23  1  0  0  0
 17 38  1  0  0  0
 17 39  1  0  0  0
 17 40  1  0  0  0
 17 52  1  0  0  0
 18 41  1  0  0  0
 18 42  1  0  0  0
 18 43  1  0  0  0
 18 52  1  0  0  0
 19 21  2  0  0  0
 20 21  1  0  0  0
 20 44  1  0  0  0
 21 45  1  0  0  0
 22 24  1  0  0  0
 22 46  1  0  0  0
 23 25  2  0  0  0
 23 47  1  0  0  0
 24 26  2  0  0  0
 24 48  1  0  0  0
 25 26  1  0  0  0
 25 49  1  0  0  0
 26 50  1  0  0  0
 52 53  1  0  0  0
M  CHG  1  52   1
M  END
> <LID>
L017988

> <PC_CID>
15411183

> <Names>


> <CAS_Numbers>


$$$$
15411182
                    3D
 Structure written by MMmdl.
 54 57  0  0  1  0            999 V2000
    3.0780    0.3500   -1.4561 O   0  0  0  0  0  0
   -0.8370   -3.7019    2.8231 O   0  0  0  0  0  0
   -2.6938    1.0750    0.4351 C   0  0  0  0  0  0
   -2.7408    2.5975    0.3437 C   0  0  0  0  0  0
   -1.3803    3.2762    0.5661 C   0  0  0  0  0  0
   -1.5544    0.3749    0.2133 C   0  0  0  0  0  0
   -0.2104    2.4906    0.0080 C   0  0  0  0  0  0
   -0.2997    1.0850   -0.1329 C   0  0  0  0  0  0
   -4.0235    0.4114    0.7974 C   0  0  0  0  0  0
   -1.5562   -1.0939    0.3232 C   0  0  0  0  0  0
    0.8222    0.3820   -0.6335 C   0  0  0  0  0  0
    0.9756    3.1706   -0.3382 C   0  0  0  0  0  0
    2.0095    1.0588   -0.9738 C   0  0  0  0  0  0
    2.0833    2.4578   -0.8304 C   0  0  0  0  0  0
   -1.1951   -1.7057    1.5410 C   0  0  0  0  0  0
   -1.8740   -1.8845   -0.8010 C   0  0  0  0  0  0
   -5.8283   -1.0580    0.0150 C   0  0  0  0  0  0
   -5.1922    0.8736   -1.3524 C   0  0  0  0  0  0
   -1.1780   -3.1106    1.6420 C   0  0  0  0  0  0
   -1.8565   -3.2888   -0.6969 C   0  0  0  0  0  0
   -1.5116   -3.9017    0.5239 C   0  0  0  0  0  0
    4.1653    0.2342   -0.6302 C   0  0  0  0  0  0
    5.3843    0.8391   -0.9977 C   0  0  0  0  0  0
    4.0828   -0.4982    0.5739 C   0  0  0  0  0  0
    6.5123    0.7230   -0.1620 C   0  0  0  0  0  0
    5.2109   -0.6142    1.4094 C   0  0  0  0  0  0
    6.4254   -0.0027    1.0420 C   0  0  0  0  0  0
   -3.1022    2.8560   -0.6506 H   0  0  0  0  0  0
   -3.4617    3.0091    1.0506 H   0  0  0  0  0  0
   -1.2071    3.3876    1.6371 H   0  0  0  0  0  0
   -1.3934    4.2837    0.1484 H   0  0  0  0  0  0
   -3.8274   -0.3905    1.5101 H   0  0  0  0  0  0
   -4.6724    1.1121    1.3244 H   0  0  0  0  0  0
    0.7907   -0.6895   -0.7631 H   0  0  0  0  0  0
    1.0411    4.2426   -0.2223 H   0  0  0  0  0  0
    2.9895    2.9832   -1.0941 H   0  0  0  0  0  0
   -0.9349   -1.0995    2.3969 H   0  0  0  0  0  0
   -2.1279   -1.4181   -1.7418 H   0  0  0  0  0  0
   -6.6044   -0.5207    0.5617 H   0  0  0  0  0  0
   -5.4531   -1.8602    0.6517 H   0  0  0  0  0  0
   -6.2846   -1.5217   -0.8603 H   0  0  0  0  0  0
   -5.8316    1.6147   -0.8708 H   0  0  0  0  0  0
   -5.7588    0.4109   -2.1613 H   0  0  0  0  0  0
   -4.3488    1.3858   -1.8127 H   0  0  0  0  0  0
   -2.1026   -3.8970   -1.5550 H   0  0  0  0  0  0
   -1.4986   -4.9795    0.5959 H   0  0  0  0  0  0
   -0.8446   -4.6461    2.7848 H   0  0  0  0  0  0
    5.4531    1.3953   -1.9210 H   0  0  0  0  0  0
    3.1540   -0.9708    0.8581 H   0  0  0  0  0  0
    7.4442    1.1900   -0.4450 H   0  0  0  0  0  0
    5.1447   -1.1730    2.3313 H   0  0  0  0  0  0
    7.2905   -0.0919    1.6826 H   0  0  0  0  0  0
   -4.7324   -0.1471   -0.3832 N   0  3  0  0  0  0
   -4.0597   -0.7228   -0.8699 H   0  0  0  0  0  0
  1 13  1  0  0  0
  1 22  1  0  0  0
  2 19  1  0  0  0
  2 47  1  0  0  0
  3  4  1  0  0  0
  3  6  2  0  0  0
  3  9  1  0  0  0
  4  5  1  0  0  0
  4 28  1  0  0  0
  4 29  1  0  0  0
  5  7  1  0  0  0
  5 30  1  0  0  0
  5 31  1  0  0  0
  6  8  1  0  0  0
  6 10  1  0  0  0
  7  8  2  0  0  0
  7 12  1  0  0  0
  8 11  1  0  0  0
  9 32  1  0  0  0
  9 33  1  0  0  0
  9 53  1  0  0  0
 10 15  2  0  0  0
 10 16  1  0  0  0
 11 13  2  0  0  0
 11 34  1  0  0  0
 12 14  2  0  0  0
 12 35  1  0  0  0
 13 14  1  0  0  0
 14 36  1  0  0  0
 15 19  1  0  0  0
 15 37  1  0  0  0
 16 20  2  0  0  0
 16 38  1  0  0  0
 17 39  1  0  0  0
 17 40  1  0  0  0
 17 41  1  0  0  0
 17 53  1  0  0  0
 18 42  1  0  0  0
 18 43  1  0  0  0
 18 44  1  0  0  0
 18 53  1  0  0  0
 19 21  2  0  0  0
 20 21  1  0  0  0
 20 45  1  0  0  0
 21 46  1  0  0  0
 22 23  2  0  0  0
 22 24  1  0  0  0
 23 25  1  0  0  0
 23 48  1  0  0  0
 24 26  2  0  0  0
 24 49  1  0  0  0
 25 27  2  0  0  0
 25 50  1  0  0  0
 26 27  1  0  0  0
 26 51  1  0  0  0
 27 52  1  0  0  0
 53 54  1  0  0  0
M  CHG  1  53   1
M  END
> <LID>
L017986

> <PC_CID>
15411182

> <Names>


> <CAS_Numbers>


$$$$
44211138
                    3D
 Structure written by MMmdl.
 60 66  0  0  1  0            999 V2000
    1.1364    1.8151   -1.5661 O   0  0  0  0  0  0
   -0.5174   -2.2493   -0.4819 O   0  0  0  0  0  0
    3.3218   -0.1174   -1.5414 O   0  0  0  0  0  0
    1.4986    4.5219   -0.4344 O   0  0  0  0  0  0
   -0.3594    0.1881   -0.6402 C   0  0  1  0  0  0
   -0.3639   -1.0645    0.2887 C   0  0  1  0  0  0
   -1.6138   -0.9152    1.2013 C   0  0  1  0  0  0
    0.9009    0.3957   -1.5418 C   0  0  2  0  0  0
   -1.6527    0.2138   -1.4950 C   0  0  0  0  0  0
   -0.2822    1.4241    0.2109 C   0  0  0  0  0  0
    0.9668   -1.2739    1.0750 C   0  0  0  0  0  0
   -1.5585    0.3762    2.0758 C   0  0  0  0  0  0
   -2.9305    0.1385   -0.6404 C   0  0  0  0  0  0
   -0.8991    1.6126    1.4590 C   0  0  0  0  0  0
    2.1050   -0.2431   -0.9301 C   0  0  0  0  0  0
    2.1639   -0.9821    0.2208 C   0  0  0  0  0  0
    0.5475    2.3182   -0.4407 C   0  0  0  0  0  0
   -4.1036   -1.1769    1.1144 C   0  0  0  0  0  0
    3.5399   -1.3602    0.3703 C   0  0  0  0  0  0
   -0.7179    2.8825    2.0467 C   0  0  0  0  0  0
    0.7070    3.5835    0.1591 C   0  0  0  0  0  0
    4.2202   -0.8019   -0.7457 C   0  0  0  0  0  0
    0.0617    3.8668    1.3887 C   0  0  0  0  0  0
   -5.1675   -1.8153    0.2363 C   0  0  0  0  0  0
    4.3160   -2.0999    1.2930 C   0  0  0  0  0  0
    5.6004   -0.9562   -0.9570 C   0  0  0  0  0  0
    5.7046   -2.2664    1.0990 C   0  0  0  0  0  0
   -6.2965   -1.2479   -0.2360 C   0  0  0  0  0  0
    6.3467   -1.6975   -0.0212 C   0  0  0  0  0  0
   -7.2731   -2.0378   -1.0854 C   0  0  0  0  0  0
   -6.7174    0.1912    0.0137 C   0  0  0  0  0  0
   -1.6560   -1.7767    1.8697 H   0  0  0  0  0  0
    0.7515    0.0051   -2.5489 H   0  0  0  0  0  0
   -1.6455   -0.6212   -2.1966 H   0  0  0  0  0  0
   -1.6831    1.1136   -2.1111 H   0  0  0  0  0  0
    1.0214   -2.2815    1.4896 H   0  0  0  0  0  0
    1.0017   -0.6068    1.9356 H   0  0  0  0  0  0
   -0.9805    0.1509    2.9724 H   0  0  0  0  0  0
   -2.5445    0.6544    2.4452 H   0  0  0  0  0  0
   -3.1110    1.0858   -0.1316 H   0  0  0  0  0  0
   -3.7845   -0.0153   -1.3003 H   0  0  0  0  0  0
   -0.3407   -2.9973    0.0692 H   0  0  0  0  0  0
   -3.9272   -1.8680    1.9393 H   0  0  0  0  0  0
   -4.4421   -0.2481    1.5687 H   0  0  0  0  0  0
   -1.1526    3.0983    3.0116 H   0  0  0  0  0  0
    0.1957    4.8339    1.8509 H   0  0  0  0  0  0
   -4.9688   -2.8454   -0.0232 H   0  0  0  0  0  0
    3.8399   -2.5416    2.1557 H   0  0  0  0  0  0
    6.0771   -0.5145   -1.8195 H   0  0  0  0  0  0
    1.8874    4.2099   -1.2376 H   0  0  0  0  0  0
    6.2812   -2.8345    1.8145 H   0  0  0  0  0  0
    7.4096   -1.8307   -0.1606 H   0  0  0  0  0  0
   -8.2529   -2.0649   -0.6077 H   0  0  0  0  0  0
   -7.3833   -1.5742   -2.0661 H   0  0  0  0  0  0
   -6.9413   -3.0660   -1.2336 H   0  0  0  0  0  0
   -7.6094    0.2158    0.6402 H   0  0  0  0  0  0
   -5.9505    0.7956    0.4925 H   0  0  0  0  0  0
   -6.9593    0.6747   -0.9331 H   0  0  0  0  0  0
   -2.8467   -0.9657    0.3524 N   0  3  2  0  0  0
   -2.7242   -1.8062   -0.1957 H   0  0  0  0  0  0
  1  8  1  0  0  0
  1 17  1  0  0  0
  2  6  1  0  0  0
  2 42  1  0  0  0
  3 15  1  0  0  0
  3 22  1  0  0  0
  4 21  1  0  0  0
  4 50  1  0  0  0
  5  6  1  0  0  0
  5  8  1  0  0  0
  5  9  1  0  0  0
  5 10  1  0  0  0
  6  7  1  0  0  0
  6 11  1  0  0  0
  7 12  1  0  0  0
  7 32  1  0  0  0
  7 59  1  0  0  0
  8 15  1  0  0  0
  8 33  1  0  0  0
  9 13  1  0  0  0
  9 34  1  0  0  0
  9 35  1  0  0  0
 10 14  2  0  0  0
 10 17  1  0  0  0
 11 16  1  0  0  0
 11 36  1  0  0  0
 11 37  1  0  0  0
 12 14  1  0  0  0
 12 38  1  0  0  0
 12 39  1  0  0  0
 13 40  1  0  0  0
 13 41  1  0  0  0
 13 59  1  0  0  0
 14 20  1  0  0  0
 15 16  2  0  0  0
 16 19  1  0  0  0
 17 21  2  0  0  0
 18 24  1  0  0  0
 18 43  1  0  0  0
 18 44  1  0  0  0
 18 59  1  0  0  0
 19 22  1  0  0  0
 19 25  2  0  0  0
 20 23  2  0  0  0
 20 45  1  0  0  0
 21 23  1  0  0  0
 22 26  2  0  0  0
 23 46  1  0  0  0
 24 28  2  0  0  0
 24 47  1  0  0  0
 25 27  1  0  0  0
 25 48  1  0  0  0
 26 29  1  0  0  0
 26 49  1  0  0  0
 27 29  2  0  0  0
 27 51  1  0  0  0
 28 30  1  0  0  0
 28 31  1  0  0  0
 29 52  1  0  0  0
 30 53  1  0  0  0
 30 54  1  0  0  0
 30 55  1  0  0  0
 31 56  1  0  0  0
 31 57  1  0  0  0
 31 58  1  0  0  0
 59 60  1  0  0  0
M  CHG  1  59   1
M  END
> <LID>
L009148

> <PC_CID>
44211138

> <Names>


> <CAS_Numbers>


$$$$
15411184
                    3D
 Structure written by MMmdl.
 55 57  0  0  1  0            999 V2000
   -1.1803   -4.1807   -0.5221 O   0  0  0  0  0  0
   -1.8008    2.7455   -0.8982 C   0  0  0  0  0  0
   -1.9829    1.3247   -0.3716 C   0  0  0  0  0  0
   -0.6758    3.5263   -0.2015 C   0  0  0  0  0  0
    0.3520    1.2834    0.4039 C   0  0  0  0  0  0
    0.5184    2.6686    0.1662 C   0  0  0  0  0  0
   -0.9787    0.6499    0.2405 C   0  0  0  0  0  0
   -3.3795    0.7357   -0.5793 C   0  0  0  0  0  0
    1.4854    0.5175    0.7680 C   0  0  0  0  0  0
    2.7549    1.1163    0.8991 C   0  0  0  0  0  0
    1.7872    3.2695    0.2974 C   0  0  0  0  0  0
   -1.2021   -0.7190    0.7363 C   0  0  0  0  0  0
    3.9562    0.2749    1.2866 C   0  0  0  0  0  0
    2.9037    2.4961    0.6614 C   0  0  0  0  0  0
    4.6316   -0.3680    0.0666 C   0  0  0  0  0  0
   -1.0786   -1.8150   -0.1430 C   0  0  0  0  0  0
   -1.4984   -0.9330    2.0980 C   0  0  0  0  0  0
    5.8486   -1.2223    0.4491 C   0  0  0  0  0  0
   -4.6974   -0.9793   -1.7423 C   0  0  0  0  0  0
   -3.2644    0.5111   -3.0575 C   0  0  0  0  0  0
   -1.2840   -3.1239    0.3341 C   0  0  0  0  0  0
   -1.6988   -2.2436    2.5733 C   0  0  0  0  0  0
    6.5230   -1.8642   -0.7684 C   0  0  0  0  0  0
   -1.5957   -3.3381    1.6919 C   0  0  0  0  0  0
   -1.5711    2.6765   -1.9605 H   0  0  0  0  0  0
   -2.7283    3.3133   -0.8190 H   0  0  0  0  0  0
   -1.0583    3.9550    0.7255 H   0  0  0  0  0  0
   -0.3624    4.3649   -0.8245 H   0  0  0  0  0  0
   -3.6573    0.1805    0.3176 H   0  0  0  0  0  0
   -4.1225    1.5295   -0.6669 H   0  0  0  0  0  0
    1.3962   -0.5442    0.9450 H   0  0  0  0  0  0
    1.9075    4.3286    0.1219 H   0  0  0  0  0  0
    4.6714    0.8988    1.8243 H   0  0  0  0  0  0
    3.6367   -0.4975    1.9876 H   0  0  0  0  0  0
    3.8725    2.9645    0.7571 H   0  0  0  0  0  0
    3.9074   -0.9869   -0.4649 H   0  0  0  0  0  0
    4.9410    0.4127   -0.6295 H   0  0  0  0  0  0
   -0.8279   -1.6533   -1.1814 H   0  0  0  0  0  0
   -1.5758   -0.0960    2.7768 H   0  0  0  0  0  0
    6.5763   -0.6065    0.9789 H   0  0  0  0  0  0
    5.5427   -2.0052    1.1440 H   0  0  0  0  0  0
   -4.7022   -1.6938   -2.5662 H   0  0  0  0  0  0
   -4.7763   -1.5491   -0.8156 H   0  0  0  0  0  0
   -5.5813   -0.3464   -1.8324 H   0  0  0  0  0  0
   -2.2528    0.9039   -3.1466 H   0  0  0  0  0  0
   -3.9717    1.3317   -3.1845 H   0  0  0  0  0  0
   -3.4035   -0.1877   -3.8831 H   0  0  0  0  0  0
   -1.9311   -2.4098    3.6150 H   0  0  0  0  0  0
    7.3821   -2.4633   -0.4657 H   0  0  0  0  0  0
    5.8328   -2.5185   -1.3018 H   0  0  0  0  0  0
    6.8762   -1.1065   -1.4684 H   0  0  0  0  0  0
   -1.7524   -4.3402    2.0637 H   0  0  0  0  0  0
   -1.3127   -5.0166   -0.1014 H   0  0  0  0  0  0
   -3.4601   -0.1681   -1.7565 N   0  3  0  0  0  0
   -2.7001   -0.8268   -1.6596 H   0  0  0  0  0  0
  1 21  1  0  0  0
  1 53  1  0  0  0
  2  3  1  0  0  0
  2  4  1  0  0  0
  2 25  1  0  0  0
  2 26  1  0  0  0
  3  7  2  0  0  0
  3  8  1  0  0  0
  4  6  1  0  0  0
  4 27  1  0  0  0
  4 28  1  0  0  0
  5  6  2  0  0  0
  5  7  1  0  0  0
  5  9  1  0  0  0
  6 11  1  0  0  0
  7 12  1  0  0  0
  8 29  1  0  0  0
  8 30  1  0  0  0
  8 54  1  0  0  0
  9 10  2  0  0  0
  9 31  1  0  0  0
 10 13  1  0  0  0
 10 14  1  0  0  0
 11 14  2  0  0  0
 11 32  1  0  0  0
 12 16  2  0  0  0
 12 17  1  0  0  0
 13 15  1  0  0  0
 13 33  1  0  0  0
 13 34  1  0  0  0
 14 35  1  0  0  0
 15 18  1  0  0  0
 15 36  1  0  0  0
 15 37  1  0  0  0
 16 21  1  0  0  0
 16 38  1  0  0  0
 17 22  2  0  0  0
 17 39  1  0  0  0
 18 23  1  0  0  0
 18 40  1  0  0  0
 18 41  1  0  0  0
 19 42  1  0  0  0
 19 43  1  0  0  0
 19 44  1  0  0  0
 19 54  1  0  0  0
 20 45  1  0  0  0
 20 46  1  0  0  0
 20 47  1  0  0  0
 20 54  1  0  0  0
 21 24  2  0  0  0
 22 24  1  0  0  0
 22 48  1  0  0  0
 23 49  1  0  0  0
 23 50  1  0  0  0
 23 51  1  0  0  0
 24 52  1  0  0  0
 54 55  1  0  0  0
M  CHG  1  54   1
M  END
> <LID>
L017989

> <PC_CID>
15411184

> <Names>


> <CAS_Numbers>


$$$$
44211134
                    3D
 Structure written by MMmdl.
 55 61  0  0  1  0            999 V2000
   -6.1440   -0.2736   -1.7342 Br  0  0  0  0  0  0
   -0.4084   -1.8339   -1.4827 O   0  0  0  0  0  0
    0.9340    2.4076   -0.6950 O   0  0  0  0  0  0
   -0.4036   -4.5152   -0.2340 O   0  0  0  0  0  0
   -2.8253   -0.0868   -1.2476 N   0  0  0  0  0  0
    0.9968   -0.0383   -0.7519 C   0  0  1  0  0  0
    0.9635    1.2470    0.1257 C   0  0  1  0  0  0
    2.2971    1.2534    0.9252 C   0  0  1  0  0  0
   -0.3138   -0.3985   -1.5217 C   0  0  2  0  0  0
    2.2048    0.0190   -1.7224 C   0  0  0  0  0  0
    1.1153   -1.2389    0.1435 C   0  0  0  0  0  0
   -0.3066    1.3611    1.0196 C   0  0  0  0  0  0
    2.4438    0.0018    1.8458 C   0  0  0  0  0  0
    3.5407    0.2482   -0.9930 C   0  0  0  0  0  0
    1.8554   -1.3161    1.3351 C   0  0  0  0  0  0
   -1.5264    0.1400   -0.8300 C   0  0  0  0  0  0
   -1.5437    0.9189    0.2947 C   0  0  0  0  0  0
    0.3228   -2.2333   -0.3999 C   0  0  0  0  0  0
    4.7326    1.7389    0.6036 C   0  0  0  0  0  0
   -2.9246    1.1858    0.5927 C   0  0  0  0  0  0
    1.8511   -2.5717    1.9788 C   0  0  0  0  0  0
    0.3410   -3.4821    0.2534 C   0  0  0  0  0  0
   -3.7205    0.5379   -0.3996 C   0  0  0  0  0  0
    1.1163   -3.6516    1.4277 C   0  0  0  0  0  0
   -3.6062    1.9097    1.5997 C   0  0  0  0  0  0
    5.6595    2.4123   -0.3891 C   0  0  0  0  0  0
   -5.1260    0.6080   -0.3888 C   0  0  0  0  0  0
   -5.0139    1.9852    1.6178 C   0  0  0  0  0  0
   -5.7741    1.3359    0.6258 C   0  0  0  0  0  0
    6.8564    1.9311   -0.7573 C   0  0  0  0  0  0
    2.3151    2.1434    1.5564 H   0  0  0  0  0  0
   -0.2913   -0.0371   -2.5505 H   0  0  0  0  0  0
    2.0549    0.8192   -2.4484 H   0  0  0  0  0  0
    2.2659   -0.8995   -2.3078 H   0  0  0  0  0  0
   -0.4231    2.3761    1.4022 H   0  0  0  0  0  0
   -0.1986    0.7333    1.9033 H   0  0  0  0  0  0
    1.9281    0.2110    2.7834 H   0  0  0  0  0  0
    3.4811   -0.1667    2.1322 H   0  0  0  0  0  0
    3.8548   -0.6563   -0.4714 H   0  0  0  0  0  0
    4.3146    0.4522   -1.7333 H   0  0  0  0  0  0
    0.7472    3.1602   -0.1535 H   0  0  0  0  0  0
    4.5705    2.4408    1.4223 H   0  0  0  0  0  0
    5.2106    0.8551    1.0282 H   0  0  0  0  0  0
   -3.0601   -0.6419   -2.0581 H   0  0  0  0  0  0
    2.3881   -2.7052    2.9064 H   0  0  0  0  0  0
    1.1185   -4.6069    1.9320 H   0  0  0  0  0  0
   -3.0375    2.4126    2.3679 H   0  0  0  0  0  0
    5.3126    3.3420   -0.8169 H   0  0  0  0  0  0
   -0.8874   -4.2766   -1.0103 H   0  0  0  0  0  0
   -5.5127    2.5435    2.3966 H   0  0  0  0  0  0
   -6.8525    1.3966    0.6441 H   0  0  0  0  0  0
    7.4711    2.4600   -1.4710 H   0  0  0  0  0  0
    7.2398    1.0053   -0.3535 H   0  0  0  0  0  0
    3.4401    1.3807   -0.0340 N   0  3  2  0  0  0
    3.1905    2.1828   -0.5963 H   0  0  0  0  0  0
  1 27  1  0  0  0
  2  9  1  0  0  0
  2 18  1  0  0  0
  3  7  1  0  0  0
  3 41  1  0  0  0
  4 22  1  0  0  0
  4 49  1  0  0  0
  5 16  1  0  0  0
  5 23  1  0  0  0
  5 44  1  0  0  0
  6  7  1  0  0  0
  6  9  1  0  0  0
  6 10  1  0  0  0
  6 11  1  0  0  0
  7  8  1  0  0  0
  7 12  1  0  0  0
  8 13  1  0  0  0
  8 31  1  0  0  0
  8 54  1  0  0  0
  9 16  1  0  0  0
  9 32  1  0  0  0
 10 14  1  0  0  0
 10 33  1  0  0  0
 10 34  1  0  0  0
 11 15  2  0  0  0
 11 18  1  0  0  0
 12 17  1  0  0  0
 12 35  1  0  0  0
 12 36  1  0  0  0
 13 15  1  0  0  0
 13 37  1  0  0  0
 13 38  1  0  0  0
 14 39  1  0  0  0
 14 40  1  0  0  0
 14 54  1  0  0  0
 15 21  1  0  0  0
 16 17  2  0  0  0
 17 20  1  0  0  0
 18 22  2  0  0  0
 19 26  1  0  0  0
 19 42  1  0  0  0
 19 43  1  0  0  0
 19 54  1  0  0  0
 20 23  2  0  0  0
 20 25  1  0  0  0
 21 24  2  0  0  0
 21 45  1  0  0  0
 22 24  1  0  0  0
 23 27  1  0  0  0
 24 46  1  0  0  0
 25 28  2  0  0  0
 25 47  1  0  0  0
 26 30  2  0  0  0
 26 48  1  0  0  0
 27 29  2  0  0  0
 28 29  1  0  0  0
 28 50  1  0  0  0
 29 51  1  0  0  0
 30 52  1  0  0  0
 30 53  1  0  0  0
 54 55  1  0  0  0
M  CHG  1  54   1
M  END
> <LID>
L009144

> <PC_CID>
44211134

> <Names>


> <CAS_Numbers>


$$$$
44211135
                    3D
 Structure written by MMmdl.
 57 64  0  0  1  0            999 V2000
    1.4769    1.8156   -1.6086 O   0  0  0  0  0  0
   -0.6223   -1.9991   -0.3953 O   0  0  0  0  0  0
    3.4228   -0.3575   -1.5603 O   0  0  0  0  0  0
    2.1697    4.4890   -0.5543 O   0  0  0  0  0  0
   -5.1249   -2.2672   -0.0049 O   0  0  0  0  0  0
   -0.1832    0.3980   -0.6205 C   0  0  1  0  0  0
   -0.3188   -0.8218    0.3415 C   0  0  1  0  0  0
   -1.5277   -0.5045    1.2661 C   0  0  1  0  0  0
    1.0783    0.4344   -1.5434 C   0  0  2  0  0  0
   -1.4781    0.5531   -1.4594 C   0  0  0  0  0  0
    0.0508    1.6374    0.1963 C   0  0  0  0  0  0
    0.9908   -1.1661    1.1157 C   0  0  0  0  0  0
   -1.3087    0.7927    2.1051 C   0  0  0  0  0  0
   -2.7423    0.6496   -0.5870 C   0  0  0  0  0  0
   -0.5199    1.9278    1.4469 C   0  0  0  0  0  0
    2.2093   -0.3251   -0.9304 C   0  0  0  0  0  0
    2.2001   -1.0372    0.2388 C   0  0  0  0  0  0
    0.9685    2.4120   -0.4896 C   0  0  0  0  0  0
   -4.0331   -0.4822    1.2148 C   0  0  0  0  0  0
    3.5249   -1.5695    0.3807 C   0  0  0  0  0  0
   -0.1826    3.1821    1.9981 C   0  0  0  0  0  0
    1.2838    3.6646    0.0742 C   0  0  0  0  0  0
    4.2479   -1.1222   -0.7583 C   0  0  0  0  0  0
    0.6956    4.0519    1.3041 C   0  0  0  0  0  0
   -5.1762   -0.9621    0.3837 C   0  0  0  0  0  0
    4.2241   -2.3716    1.3125 C   0  0  0  0  0  0
    5.5973   -1.4416   -0.9831 C   0  0  0  0  0  0
    5.5807   -2.7038    1.1053 C   0  0  0  0  0  0
   -6.3004   -0.3617   -0.1122 C   0  0  0  0  0  0
    6.2668   -2.2417   -0.0377 C   0  0  0  0  0  0
   -6.9933   -1.3595   -0.8518 C   0  0  0  0  0  0
   -6.2384   -2.4936   -0.7539 C   0  0  0  0  0  0
   -1.6594   -1.3387    1.9572 H   0  0  0  0  0  0
    0.8685    0.0388   -2.5378 H   0  0  0  0  0  0
   -1.5794   -0.2948   -2.1380 H   0  0  0  0  0  0
   -1.4129    1.4341   -2.0994 H   0  0  0  0  0  0
    0.9341   -2.1628    1.5556 H   0  0  0  0  0  0
    1.1168   -0.4869    1.9581 H   0  0  0  0  0  0
   -0.7468    0.5241    3.0001 H   0  0  0  0  0  0
   -2.2502    1.1928    2.4791 H   0  0  0  0  0  0
   -2.8029    1.6246   -0.1027 H   0  0  0  0  0  0
   -3.6189    0.5785   -1.2313 H   0  0  0  0  0  0
   -0.5321   -2.7486    0.1745 H   0  0  0  0  0  0
   -3.9184   -1.1580    2.0630 H   0  0  0  0  0  0
   -4.2619    0.5000    1.6294 H   0  0  0  0  0  0
   -0.5736    3.4712    2.9626 H   0  0  0  0  0  0
    0.9487    5.0080    1.7386 H   0  0  0  0  0  0
    3.7135   -2.7333    2.1926 H   0  0  0  0  0  0
    6.1084   -1.0801   -1.8630 H   0  0  0  0  0  0
    2.5068    4.1136   -1.3538 H   0  0  0  0  0  0
    6.0985   -3.3174    1.8282 H   0  0  0  0  0  0
   -6.5886    0.6686    0.0371 H   0  0  0  0  0  0
    7.3048   -2.5014   -0.1871 H   0  0  0  0  0  0
   -7.9254   -1.2604   -1.3884 H   0  0  0  0  0  0
   -6.3412   -3.4983   -1.1370 H   0  0  0  0  0  0
   -2.7709   -0.4303    0.4349 N   0  3  2  0  0  0
   -2.7594   -1.2932   -0.0921 H   0  0  0  0  0  0
  1  9  1  0  0  0
  1 18  1  0  0  0
  2  7  1  0  0  0
  2 43  1  0  0  0
  3 16  1  0  0  0
  3 23  1  0  0  0
  4 22  1  0  0  0
  4 50  1  0  0  0
  5 25  1  0  0  0
  5 32  1  0  0  0
  6  7  1  0  0  0
  6  9  1  0  0  0
  6 10  1  0  0  0
  6 11  1  0  0  0
  7  8  1  0  0  0
  7 12  1  0  0  0
  8 13  1  0  0  0
  8 33  1  0  0  0
  8 56  1  0  0  0
  9 16  1  0  0  0
  9 34  1  0  0  0
 10 14  1  0  0  0
 10 35  1  0  0  0
 10 36  1  0  0  0
 11 15  2  0  0  0
 11 18  1  0  0  0
 12 17  1  0  0  0
 12 37  1  0  0  0
 12 38  1  0  0  0
 13 15  1  0  0  0
 13 39  1  0  0  0
 13 40  1  0  0  0
 14 41  1  0  0  0
 14 42  1  0  0  0
 14 56  1  0  0  0
 15 21  1  0  0  0
 16 17  2  0  0  0
 17 20  1  0  0  0
 18 22  2  0  0  0
 19 25  1  0  0  0
 19 44  1  0  0  0
 19 45  1  0  0  0
 19 56  1  0  0  0
 20 23  1  0  0  0
 20 26  2  0  0  0
 21 24  2  0  0  0
 21 46  1  0  0  0
 22 24  1  0  0  0
 23 27  2  0  0  0
 24 47  1  0  0  0
 25 29  2  0  0  0
 26 28  1  0  0  0
 26 48  1  0  0  0
 27 30  1  0  0  0
 27 49  1  0  0  0
 28 30  2  0  0  0
 28 51  1  0  0  0
 29 31  1  0  0  0
 29 52  1  0  0  0
 30 53  1  0  0  0
 31 32  2  0  0  0
 31 54  1  0  0  0
 32 55  1  0  0  0
 56 57  1  0  0  0
M  CHG  1  56   1
M  END
> <LID>
L009145

> <PC_CID>
44211135

> <Names>


> <CAS_Numbers>


$$$$
44211136
                    3D
 Structure written by MMmdl.
 53 59  0  0  1  0            999 V2000
    1.3876   -2.0210   -1.3069 O   0  0  0  0  0  0
    0.9975    2.4785   -1.4135 O   0  0  0  0  0  0
    2.1262   -4.2209    0.5270 O   0  0  0  0  0  0
   -5.5229    1.8733    1.9797 O   0  0  0  0  0  0
   -1.4942   -1.3086   -1.7003 N   0  0  0  0  0  0
    1.9273    0.2751   -0.8937 C   0  0  1  0  0  0
    1.2961    1.5891   -0.3452 C   0  0  1  0  0  0
    2.3873    2.2494    0.5445 C   0  0  1  0  0  0
    0.9764   -0.6907   -1.6707 C   0  0  2  0  0  0
    3.1844    0.6067   -1.7405 C   0  0  0  0  0  0
    2.3078   -0.6041    0.2635 C   0  0  0  0  0  0
   -0.0632    1.3736    0.3825 C   0  0  0  0  0  0
    2.8067    1.3379    1.7404 C   0  0  0  0  0  0
    4.2097    1.4589   -0.9704 C   0  0  0  0  0  0
   -0.4463   -0.5354   -1.2334 C   0  0  0  0  0  0
    2.8160   -0.1742    1.5005 C   0  0  0  0  0  0
   -0.9244    0.3712   -0.3272 C   0  0  0  0  0  0
    2.0194   -1.9065   -0.1009 C   0  0  0  0  0  0
   -2.3403    0.1478   -0.2250 C   0  0  0  0  0  0
    4.5117    3.5581    0.3055 C   0  0  0  0  0  0
    3.1458   -1.1960    2.4159 C   0  0  0  0  0  0
    2.3661   -2.9118    0.8241 C   0  0  0  0  0  0
   -2.6798   -0.9221   -1.1045 C   0  0  0  0  0  0
    2.9423   -2.5554    2.0690 C   0  0  0  0  0  0
   -3.3895    0.7346    0.5198 C   0  0  0  0  0  0
   -4.0002   -1.3845   -1.2352 C   0  0  0  0  0  0
   -4.7265    0.2848    0.4026 C   0  0  0  0  0  0
   -5.0222   -0.7794   -0.4806 C   0  0  0  0  0  0
   -5.8194    0.9328    1.2091 C   0  0  0  0  0  0
    1.9908    3.1818    0.9498 H   0  0  0  0  0  0
    1.0435   -0.5433   -2.7492 H   0  0  0  0  0  0
    2.8869    1.1401   -2.6442 H   0  0  0  0  0  0
    3.6631   -0.3106   -2.0861 H   0  0  0  0  0  0
   -0.5921    2.3195    0.5079 H   0  0  0  0  0  0
    0.1078    1.0058    1.3935 H   0  0  0  0  0  0
    2.0979    1.5022    2.5525 H   0  0  0  0  0  0
    3.7709    1.6305    2.1530 H   0  0  0  0  0  0
    4.7315    0.8572   -0.2255 H   0  0  0  0  0  0
    4.9737    1.8148   -1.6626 H   0  0  0  0  0  0
    0.4513    3.1773   -1.0849 H   0  0  0  0  0  0
   -1.3781   -2.0492   -2.3768 H   0  0  0  0  0  0
    5.2061    3.9398   -0.4438 H   0  0  0  0  0  0
    3.9942    4.4145    0.7389 H   0  0  0  0  0  0
    5.1001    3.0788    1.0876 H   0  0  0  0  0  0
    3.5308   -0.9426    3.3927 H   0  0  0  0  0  0
    3.1958   -3.3281    2.7800 H   0  0  0  0  0  0
   -3.1522    1.5464    1.1918 H   0  0  0  0  0  0
   -4.2305   -2.1967   -1.9083 H   0  0  0  0  0  0
    1.7215   -4.3297   -0.3203 H   0  0  0  0  0  0
   -6.0359   -1.1388   -0.5854 H   0  0  0  0  0  0
   -6.9916    0.5129    1.0852 O   0  5  0  0  0  0
    3.5520    2.6192   -0.3197 N   0  3  2  0  0  0
    3.1321    3.1385   -1.0789 H   0  0  0  0  0  0
  1  9  1  0  0  0
  1 18  1  0  0  0
  2  7  1  0  0  0
  2 40  1  0  0  0
  3 22  1  0  0  0
  3 49  1  0  0  0
  4 29  2  0  0  0
  5 15  1  0  0  0
  5 23  1  0  0  0
  5 41  1  0  0  0
  6  7  1  0  0  0
  6  9  1  0  0  0
  6 10  1  0  0  0
  6 11  1  0  0  0
  7  8  1  0  0  0
  7 12  1  0  0  0
  8 13  1  0  0  0
  8 30  1  0  0  0
  8 52  1  0  0  0
  9 15  1  0  0  0
  9 31  1  0  0  0
 10 14  1  0  0  0
 10 32  1  0  0  0
 10 33  1  0  0  0
 11 16  2  0  0  0
 11 18  1  0  0  0
 12 17  1  0  0  0
 12 34  1  0  0  0
 12 35  1  0  0  0
 13 16  1  0  0  0
 13 36  1  0  0  0
 13 37  1  0  0  0
 14 38  1  0  0  0
 14 39  1  0  0  0
 14 52  1  0  0  0
 15 17  2  0  0  0
 16 21  1  0  0  0
 17 19  1  0  0  0
 18 22  2  0  0  0
 19 23  2  0  0  0
 19 25  1  0  0  0
 20 42  1  0  0  0
 20 43  1  0  0  0
 20 44  1  0  0  0
 20 52  1  0  0  0
 21 24  2  0  0  0
 21 45  1  0  0  0
 22 24  1  0  0  0
 23 26  1  0  0  0
 24 46  1  0  0  0
 25 27  2  0  0  0
 25 47  1  0  0  0
 26 28  2  0  0  0
 26 48  1  0  0  0
 27 28  1  0  0  0
 27 29  1  0  0  0
 28 50  1  0  0  0
 29 51  1  0  0  0
 52 53  1  0  0  0
M  CHG  2  51  -1  52   1
M  END
> <LID>
L009146

> <PC_CID>
44211136

> <Names>


> <CAS_Numbers>


$$$$
3277599
                    3D
 Structure written by MMmdl.
 51 55  0  0  1  0            999 V2000
   -0.3134    4.4181    0.8339 O   0  0  0  0  0  0
    1.9155   -0.3307    1.3004 N   0  0  0  0  0  0
   -1.7567   -0.3595    0.4365 C   0  0  1  0  0  0
   -1.6540   -1.1683   -0.8953 C   0  0  2  0  0  0
   -3.0240   -0.8300    1.2032 C   0  0  0  0  0  0
   -0.4911   -0.6706    1.2922 C   0  0  0  0  0  0
   -1.7826   -2.6933   -0.6748 C   0  0  0  0  0  0
   -0.3871   -0.8191   -1.7086 C   0  0  0  0  0  0
   -3.1427   -2.3593    1.3486 C   0  0  0  0  0  0
   -1.9041    1.1518    0.1177 C   0  0  0  0  0  0
    0.8199   -0.5258    0.5361 C   0  0  0  0  0  0
    0.8664   -0.6151   -0.8728 C   0  0  0  0  0  0
   -3.2557   -4.4933    0.1303 C   0  0  0  0  0  0
   -1.0204    2.1343    0.6366 C   0  0  0  0  0  0
   -2.9632    1.5947   -0.7145 C   0  0  0  0  0  0
    2.1188   -0.4842   -1.5030 C   0  0  0  0  0  0
    3.2651   -0.2758   -0.7100 C   0  0  0  0  0  0
    3.1216   -0.2036    0.7026 C   0  0  0  0  0  0
   -1.1826    3.4982    0.3244 C   0  0  0  0  0  0
   -3.1282    2.9573   -1.0268 C   0  0  0  0  0  0
   -2.2366    3.9121   -0.5093 C   0  0  0  0  0  0
    4.5316   -0.1409   -1.3155 C   0  0  0  0  0  0
    4.2793    0.0055    1.4815 C   0  0  0  0  0  0
    5.6723    0.0673   -0.5189 C   0  0  0  0  0  0
    5.5457    0.1405    0.8803 C   0  0  0  0  0  0
   -2.5029   -0.9228   -1.5331 H   0  0  0  0  0  0
   -3.9219   -0.4915    0.6863 H   0  0  0  0  0  0
   -3.0595   -0.3610    2.1875 H   0  0  0  0  0  0
   -0.4984   -1.7000    1.6439 H   0  0  0  0  0  0
   -0.4803   -0.0739    2.2052 H   0  0  0  0  0  0
   -1.7808   -3.1972   -1.6425 H   0  0  0  0  0  0
   -0.9273   -3.0874   -0.1246 H   0  0  0  0  0  0
   -0.5591    0.1142   -2.2463 H   0  0  0  0  0  0
   -0.1984   -1.5734   -2.4735 H   0  0  0  0  0  0
   -2.3869   -2.7531    2.0282 H   0  0  0  0  0  0
   -4.1070   -2.5986    1.7989 H   0  0  0  0  0  0
   -4.2195   -4.7118    0.5916 H   0  0  0  0  0  0
   -3.2511   -4.9517   -0.8592 H   0  0  0  0  0  0
   -2.4753   -4.9650    0.7292 H   0  0  0  0  0  0
   -0.1953    1.8754    1.2804 H   0  0  0  0  0  0
   -3.6719    0.8926   -1.1263 H   0  0  0  0  0  0
    2.1964   -0.5392   -2.5793 H   0  0  0  0  0  0
   -3.9420    3.2700   -1.6644 H   0  0  0  0  0  0
   -2.3664    4.9567   -0.7517 H   0  0  0  0  0  0
    4.6334   -0.1961   -2.3897 H   0  0  0  0  0  0
    4.1943    0.0640    2.5567 H   0  0  0  0  0  0
    6.6436    0.1711   -0.9804 H   0  0  0  0  0  0
    6.4204    0.3005    1.4936 H   0  0  0  0  0  0
   -0.5063    5.3029    0.5643 H   0  0  0  0  0  0
   -3.0411   -3.0330    0.0325 N   0  3  2  0  0  0
   -3.7953   -2.6717   -0.5343 H   0  0  0  0  0  0
  1 19  1  0  0  0
  1 49  1  0  0  0
  2 11  2  0  0  0
  2 18  1  0  0  0
  3  4  1  0  0  0
  3  5  1  0  0  0
  3  6  1  0  0  0
  3 10  1  0  0  0
  4  7  1  0  0  0
  4  8  1  0  0  0
  4 26  1  0  0  0
  5  9  1  0  0  0
  5 27  1  0  0  0
  5 28  1  0  0  0
  6 11  1  0  0  0
  6 29  1  0  0  0
  6 30  1  0  0  0
  7 31  1  0  0  0
  7 32  1  0  0  0
  7 50  1  0  0  0
  8 12  1  0  0  0
  8 33  1  0  0  0
  8 34  1  0  0  0
  9 35  1  0  0  0
  9 36  1  0  0  0
  9 50  1  0  0  0
 10 14  2  0  0  0
 10 15  1  0  0  0
 11 12  1  0  0  0
 12 16  2  0  0  0
 13 37  1  0  0  0
 13 38  1  0  0  0
 13 39  1  0  0  0
 13 50  1  0  0  0
 14 19  1  0  0  0
 14 40  1  0  0  0
 15 20  2  0  0  0
 15 41  1  0  0  0
 16 17  1  0  0  0
 16 42  1  0  0  0
 17 18  1  0  0  0
 17 22  2  0  0  0
 18 23  2  0  0  0
 19 21  2  0  0  0
 20 21  1  0  0  0
 20 43  1  0  0  0
 21 44  1  0  0  0
 22 24  1  0  0  0
 22 45  1  0  0  0
 23 25  1  0  0  0
 23 46  1  0  0  0
 24 25  2  0  0  0
 24 47  1  0  0  0
 25 48  1  0  0  0
 50 51  1  0  0  0
M  CHG  1  50   1
M  END
> <LID>
L000590

> <PC_CID>
3277599

> <Names>
TAN 67;TAN-67

> <CAS_Numbers>


$$$$
44211130
                    3D
 Structure written by MMmdl.
 50 56  0  0  1  0            999 V2000
   -0.1302    1.7825   -1.5303 O   0  0  0  0  0  0
   -0.5318   -2.6679   -0.8571 O   0  0  0  0  0  0
    2.5347    0.6092   -1.3511 O   0  0  0  0  0  0
   -0.7344    4.3650   -0.2247 O   0  0  0  0  0  0
   -1.1273   -0.2940   -0.8700 C   0  0  1  0  0  0
   -0.8296   -1.5633   -0.0130 C   0  0  1  0  0  0
   -2.1454   -1.8794    0.7535 C   0  0  1  0  0  0
    0.0858    0.3618   -1.6068 C   0  0  2  0  0  0
   -2.2788   -0.5872   -1.8675 C   0  0  0  0  0  0
   -1.5180    0.8301    0.0473 C   0  0  0  0  0  0
    0.4192   -1.4246    0.9112 C   0  0  0  0  0  0
   -2.5757   -0.7106    1.6944 C   0  0  0  0  0  0
   -3.5444   -1.1210   -1.1723 C   0  0  0  0  0  0
   -2.2776    0.7155    1.2236 C   0  0  0  0  0  0
    1.3650    0.0690   -0.8927 C   0  0  0  0  0  0
    1.5414   -0.7119    0.2179 C   0  0  0  0  0  0
   -0.9494    1.9857   -0.4562 C   0  0  0  0  0  0
   -4.4053   -2.8816    0.3390 C   0  0  0  0  0  0
    2.9461   -0.6659    0.5068 C   0  0  0  0  0  0
   -2.5557    1.9256    1.8939 C   0  0  0  0  0  0
   -1.2478    3.1839    0.2233 C   0  0  0  0  0  0
    3.5217    0.1649   -0.4924 C   0  0  0  0  0  0
   -2.0619    3.1523    1.3830 C   0  0  0  0  0  0
    3.8225   -1.2104    1.4743 C   0  0  0  0  0  0
    4.8950    0.4553   -0.5495 C   0  0  0  0  0  0
    5.2060   -0.9307    1.4348 C   0  0  0  0  0  0
    5.7425   -0.1011    0.4274 C   0  0  0  0  0  0
   -1.9884   -2.7691    1.3656 H   0  0  0  0  0  0
    0.1614    0.0312   -2.6432 H   0  0  0  0  0  0
   -1.9458   -1.3166   -2.6069 H   0  0  0  0  0  0
   -2.5291    0.3108   -2.4341 H   0  0  0  0  0  0
    0.7448   -2.3994    1.2769 H   0  0  0  0  0  0
    0.1633   -0.8538    1.8031 H   0  0  0  0  0  0
   -2.0426   -0.8257    2.6385 H   0  0  0  0  0  0
   -3.6289   -0.7748    1.9632 H   0  0  0  0  0  0
   -4.0591   -0.3218   -0.6380 H   0  0  0  0  0  0
   -4.2444   -1.4812   -1.9272 H   0  0  0  0  0  0
   -0.1870   -3.3722   -0.3285 H   0  0  0  0  0  0
   -5.0328   -3.2874   -0.4552 H   0  0  0  0  0  0
   -4.1205   -3.7107    0.9874 H   0  0  0  0  0  0
   -5.0127   -2.1850    0.9166 H   0  0  0  0  0  0
   -3.1247    1.9163    2.8119 H   0  0  0  0  0  0
   -2.2788    4.0713    1.9075 H   0  0  0  0  0  0
    3.4278   -1.8472    2.2520 H   0  0  0  0  0  0
    5.2902    1.0921   -1.3270 H   0  0  0  0  0  0
   -0.1940    4.2552   -0.9926 H   0  0  0  0  0  0
    5.8600   -1.3554    2.1824 H   0  0  0  0  0  0
    6.8024    0.1069    0.4059 H   0  0  0  0  0  0
   -3.2100   -2.2260   -0.2400 N   0  3  2  0  0  0
   -2.7775   -2.9325   -0.8198 H   0  0  0  0  0  0
  1  8  1  0  0  0
  1 17  1  0  0  0
  2  6  1  0  0  0
  2 38  1  0  0  0
  3 15  1  0  0  0
  3 22  1  0  0  0
  4 21  1  0  0  0
  4 46  1  0  0  0
  5  6  1  0  0  0
  5  8  1  0  0  0
  5  9  1  0  0  0
  5 10  1  0  0  0
  6  7  1  0  0  0
  6 11  1  0  0  0
  7 12  1  0  0  0
  7 28  1  0  0  0
  7 49  1  0  0  0
  8 15  1  0  0  0
  8 29  1  0  0  0
  9 13  1  0  0  0
  9 30  1  0  0  0
  9 31  1  0  0  0
 10 14  2  0  0  0
 10 17  1  0  0  0
 11 16  1  0  0  0
 11 32  1  0  0  0
 11 33  1  0  0  0
 12 14  1  0  0  0
 12 34  1  0  0  0
 12 35  1  0  0  0
 13 36  1  0  0  0
 13 37  1  0  0  0
 13 49  1  0  0  0
 14 20  1  0  0  0
 15 16  2  0  0  0
 16 19  1  0  0  0
 17 21  2  0  0  0
 18 39  1  0  0  0
 18 40  1  0  0  0
 18 41  1  0  0  0
 18 49  1  0  0  0
 19 22  1  0  0  0
 19 24  2  0  0  0
 20 23  2  0  0  0
 20 42  1  0  0  0
 21 23  1  0  0  0
 22 25  2  0  0  0
 23 43  1  0  0  0
 24 26  1  0  0  0
 24 44  1  0  0  0
 25 27  1  0  0  0
 25 45  1  0  0  0
 26 27  2  0  0  0
 26 47  1  0  0  0
 27 48  1  0  0  0
 49 50  1  0  0  0
M  CHG  1  49   1
M  END
> <LID>
L009140

> <PC_CID>
44211130

> <Names>


> <CAS_Numbers>


$$$$
44211131
                    3D
 Structure written by MMmdl.
 56 62  0  0  1  0            999 V2000
   -0.2231    1.7449   -1.4321 O   0  0  0  0  0  0
   -0.3851   -2.6263   -0.8652 O   0  0  0  0  0  0
    2.5044    0.6272   -1.3255 O   0  0  0  0  0  0
   -1.0395    4.3955   -0.0424 O   0  0  0  0  0  0
   -1.1289   -0.3662   -0.7742 C   0  0  1  0  0  0
   -0.7563   -1.6156    0.0862 C   0  0  1  0  0  0
   -2.0655   -2.0046    0.8349 C   0  0  1  0  0  0
    0.0511    0.3379   -1.5161 C   0  0  2  0  0  0
   -2.2499   -0.7324   -1.7836 C   0  0  0  0  0  0
   -1.5859    0.7447    0.1269 C   0  0  0  0  0  0
    0.4494   -1.3316    1.0424 C   0  0  0  0  0  0
   -2.5923   -0.8552    1.7516 C   0  0  0  0  0  0
   -3.4834   -1.3567   -1.1087 C   0  0  0  0  0  0
   -2.3619    0.5851    1.2854 C   0  0  0  0  0  0
    1.3515    0.0912   -0.8227 C   0  0  0  0  0  0
    1.5616   -0.6511    0.3070 C   0  0  0  0  0  0
   -1.0646    1.9298   -0.3683 C   0  0  0  0  0  0
   -4.2335   -3.1756    0.3909 C   0  0  0  0  0  0
    2.9720   -0.5886    0.5601 C   0  0  0  0  0  0
   -2.7152    1.7743    1.9511 C   0  0  0  0  0  0
   -1.4399    3.1231    0.3089 C   0  0  0  0  0  0
    3.5160    0.2155   -0.4784 C   0  0  0  0  0  0
   -0.0000   -3.9124   -0.3917 C   0  0  0  0  0  0
   -2.2754    3.0237    1.4511 C   0  0  0  0  0  0
    3.8758   -1.0967    1.5219 C   0  0  0  0  0  0
    4.8852    0.5134   -0.5783 C   0  0  0  0  0  0
    5.2556   -0.8088    1.4391 C   0  0  0  0  0  0
    5.7607   -0.0070    0.3937 C   0  0  0  0  0  0
   -0.1916    4.5618   -1.1677 C   0  0  0  0  0  0
   -1.8699   -2.8653    1.4745 H   0  0  0  0  0  0
    0.1281    0.0185   -2.5560 H   0  0  0  0  0  0
   -1.8615   -1.4352   -2.5218 H   0  0  0  0  0  0
   -2.5540    0.1487   -2.3504 H   0  0  0  0  0  0
    0.7999   -2.2329    1.5420 H   0  0  0  0  0  0
    0.1375   -0.6766    1.8549 H   0  0  0  0  0  0
   -2.0827   -0.9353    2.7124 H   0  0  0  0  0  0
   -3.6478   -0.9787    1.9888 H   0  0  0  0  0  0
   -4.0612   -0.5972   -0.5810 H   0  0  0  0  0  0
   -4.1449   -1.7649   -1.8738 H   0  0  0  0  0  0
   -4.8225   -3.6225   -0.4107 H   0  0  0  0  0  0
   -3.8968   -3.9846    1.0399 H   0  0  0  0  0  0
   -4.8944   -2.5260    0.9644 H   0  0  0  0  0  0
   -3.3011    1.7333    2.8576 H   0  0  0  0  0  0
    0.1276   -4.5739   -1.2483 H   0  0  0  0  0  0
    0.9548   -3.8901    0.1320 H   0  0  0  0  0  0
   -0.7512   -4.3648    0.2542 H   0  0  0  0  0  0
   -2.5551    3.9248    1.9769 H   0  0  0  0  0  0
    3.5052   -1.7116    2.3286 H   0  0  0  0  0  0
    5.2562    1.1289   -1.3843 H   0  0  0  0  0  0
    5.9313   -1.2056    2.1829 H   0  0  0  0  0  0
    6.8181    0.2075    0.3395 H   0  0  0  0  0  0
    0.0108    5.6233   -1.3091 H   0  0  0  0  0  0
    0.7673    4.0629   -1.0216 H   0  0  0  0  0  0
   -0.6616    4.1939   -2.0806 H   0  0  0  0  0  0
   -3.0814   -2.4357   -0.1737 N   0  3  2  0  0  0
   -2.5941   -3.1116   -0.7461 H   0  0  0  0  0  0
  1  8  1  0  0  0
  1 17  1  0  0  0
  2  6  1  0  0  0
  2 23  1  0  0  0
  3 15  1  0  0  0
  3 22  1  0  0  0
  4 21  1  0  0  0
  4 29  1  0  0  0
  5  6  1  0  0  0
  5  8  1  0  0  0
  5  9  1  0  0  0
  5 10  1  0  0  0
  6  7  1  0  0  0
  6 11  1  0  0  0
  7 12  1  0  0  0
  7 30  1  0  0  0
  7 55  1  0  0  0
  8 15  1  0  0  0
  8 31  1  0  0  0
  9 13  1  0  0  0
  9 32  1  0  0  0
  9 33  1  0  0  0
 10 14  2  0  0  0
 10 17  1  0  0  0
 11 16  1  0  0  0
 11 34  1  0  0  0
 11 35  1  0  0  0
 12 14  1  0  0  0
 12 36  1  0  0  0
 12 37  1  0  0  0
 13 38  1  0  0  0
 13 39  1  0  0  0
 13 55  1  0  0  0
 14 20  1  0  0  0
 15 16  2  0  0  0
 16 19  1  0  0  0
 17 21  2  0  0  0
 18 40  1  0  0  0
 18 41  1  0  0  0
 18 42  1  0  0  0
 18 55  1  0  0  0
 19 22  1  0  0  0
 19 25  2  0  0  0
 20 24  2  0  0  0
 20 43  1  0  0  0
 21 24  1  0  0  0
 22 26  2  0  0  0
 23 44  1  0  0  0
 23 45  1  0  0  0
 23 46  1  0  0  0
 24 47  1  0  0  0
 25 27  1  0  0  0
 25 48  1  0  0  0
 26 28  1  0  0  0
 26 49  1  0  0  0
 27 28  2  0  0  0
 27 50  1  0  0  0
 28 51  1  0  0  0
 29 52  1  0  0  0
 29 53  1  0  0  0
 29 54  1  0  0  0
 55 56  1  0  0  0
M  CHG  1  55   1
M  END
> <LID>
L009141

> <PC_CID>
44211131

> <Names>


> <CAS_Numbers>


$$$$
44211132
                    3D
 Structure written by MMmdl.
 53 59  0  0  1  0            999 V2000
   -0.2656    1.6008   -1.4711 O   0  0  0  0  0  0
   -0.3223   -2.8675   -0.8904 O   0  0  0  0  0  0
    2.4826    0.6490   -1.3141 O   0  0  0  0  0  0
   -1.1126    4.1993   -0.0029 O   0  0  0  0  0  0
   -1.0935   -0.5453   -0.8420 C   0  0  1  0  0  0
   -0.6952   -1.8090   -0.0177 C   0  0  1  0  0  0
   -1.9773   -2.2402    0.7476 C   0  0  1  0  0  0
    0.0617    0.2063   -1.5720 C   0  0  2  0  0  0
   -2.2288   -0.8987   -1.8387 C   0  0  0  0  0  0
   -1.5553    0.5310    0.1015 C   0  0  0  0  0  0
    0.5465   -1.6002    0.9036 C   0  0  0  0  0  0
   -2.4834   -1.1279    1.7172 C   0  0  0  0  0  0
   -3.4454   -1.5413   -1.1486 C   0  0  0  0  0  0
   -2.2943    0.3269    1.2783 C   0  0  0  0  0  0
    1.3627    0.0043   -0.8667 C   0  0  0  0  0  0
    1.6056   -0.7838    0.2259 C   0  0  0  0  0  0
   -1.0816    1.7413   -0.3812 C   0  0  0  0  0  0
   -4.1600   -3.3974    0.3239 C   0  0  0  0  0  0
    3.0024   -0.6286    0.5147 C   0  0  0  0  0  0
   -2.6601    1.4921    1.9789 C   0  0  0  0  0  0
   -1.4689    2.9095    0.3318 C   0  0  0  0  0  0
    3.5050    0.2688   -0.4662 C   0  0  0  0  0  0
   -2.2684    2.7632    1.4944 C   0  0  0  0  0  0
    3.9231   -1.1201    1.4693 C   0  0  0  0  0  0
    4.8495    0.6727   -0.5177 C   0  0  0  0  0  0
    5.2786   -0.7263    1.4351 C   0  0  0  0  0  0
    5.7424    0.1668    0.4461 C   0  0  0  0  0  0
   -0.2939    4.4110   -1.1423 C   0  0  0  0  0  0
   -1.7503   -3.1296    1.3377 H   0  0  0  0  0  0
    0.1574   -0.1016   -2.6137 H   0  0  0  0  0  0
   -1.8492   -1.5840   -2.5976 H   0  0  0  0  0  0
   -2.5491   -0.0084   -2.3818 H   0  0  0  0  0  0
    0.9488   -2.5568    1.2400 H   0  0  0  0  0  0
    0.2544   -1.0759    1.8128 H   0  0  0  0  0  0
   -1.9364   -1.2254    2.6553 H   0  0  0  0  0  0
   -3.5269   -1.2751    1.9909 H   0  0  0  0  0  0
   -4.0129   -0.7956   -0.5910 H   0  0  0  0  0  0
   -4.1233   -1.9338   -1.9075 H   0  0  0  0  0  0
    0.0774   -3.5569   -0.3811 H   0  0  0  0  0  0
   -4.7632   -3.8285   -0.4757 H   0  0  0  0  0  0
   -3.8087   -4.2191    0.9487 H   0  0  0  0  0  0
   -4.8116   -2.7623    0.9237 H   0  0  0  0  0  0
   -3.2203    1.4165    2.8993 H   0  0  0  0  0  0
   -2.5573    3.6452    2.0471 H   0  0  0  0  0  0
    3.5842   -1.8043    2.2330 H   0  0  0  0  0  0
    5.1888    1.3571   -1.2811 H   0  0  0  0  0  0
    5.9674   -1.1119    2.1727 H   0  0  0  0  0  0
    6.7814    0.4620    0.4285 H   0  0  0  0  0  0
   -0.1204    5.4800   -1.2644 H   0  0  0  0  0  0
    0.6797    3.9327   -1.0281 H   0  0  0  0  0  0
   -0.7750    4.0516   -2.0528 H   0  0  0  0  0  0
   -3.0217   -2.6409   -0.2469 N   0  3  2  0  0  0
   -2.5431   -3.2988   -0.8472 H   0  0  0  0  0  0
  1  8  1  0  0  0
  1 17  1  0  0  0
  2  6  1  0  0  0
  2 39  1  0  0  0
  3 15  1  0  0  0
  3 22  1  0  0  0
  4 21  1  0  0  0
  4 28  1  0  0  0
  5  6  1  0  0  0
  5  8  1  0  0  0
  5  9  1  0  0  0
  5 10  1  0  0  0
  6  7  1  0  0  0
  6 11  1  0  0  0
  7 12  1  0  0  0
  7 29  1  0  0  0
  7 52  1  0  0  0
  8 15  1  0  0  0
  8 30  1  0  0  0
  9 13  1  0  0  0
  9 31  1  0  0  0
  9 32  1  0  0  0
 10 14  2  0  0  0
 10 17  1  0  0  0
 11 16  1  0  0  0
 11 33  1  0  0  0
 11 34  1  0  0  0
 12 14  1  0  0  0
 12 35  1  0  0  0
 12 36  1  0  0  0
 13 37  1  0  0  0
 13 38  1  0  0  0
 13 52  1  0  0  0
 14 20  1  0  0  0
 15 16  2  0  0  0
 16 19  1  0  0  0
 17 21  2  0  0  0
 18 40  1  0  0  0
 18 41  1  0  0  0
 18 42  1  0  0  0
 18 52  1  0  0  0
 19 22  1  0  0  0
 19 24  2  0  0  0
 20 23  2  0  0  0
 20 43  1  0  0  0
 21 23  1  0  0  0
 22 25  2  0  0  0
 23 44  1  0  0  0
 24 26  1  0  0  0
 24 45  1  0  0  0
 25 27  1  0  0  0
 25 46  1  0  0  0
 26 27  2  0  0  0
 26 47  1  0  0  0
 27 48  1  0  0  0
 28 49  1  0  0  0
 28 50  1  0  0  0
 28 51  1  0  0  0
 52 53  1  0  0  0
M  CHG  1  52   1
M  END
> <LID>
L009142

> <PC_CID>
44211132

> <Names>


> <CAS_Numbers>


$$$$
44215691
                    3D
 Structure written by MMmdl.
 68 74  0  0  1  0            999 V2000
   -0.4789    0.6942   -0.2254 O   0  0  0  0  0  0
    3.6185    1.4494    1.3599 O   0  0  0  0  0  0
    3.1429    3.6587   -0.1939 O   0  0  0  0  0  0
    6.4365    0.5418    1.1372 O   0  0  0  0  0  0
    1.7926    0.2661    0.4062 C   0  0  1  0  0  0
    0.7713    0.2268   -0.7572 C   0  0  1  0  0  0
    0.6667   -1.2707   -1.1718 C   0  0  1  0  0  0
    2.2744    1.6731    0.8838 C   0  0  2  0  0  0
    1.2119   -0.5399    1.5993 C   0  0  0  0  0  0
    3.1032   -0.3435    0.0091 C   0  0  0  0  0  0
    1.2192    1.1728   -1.8981 C   0  0  0  0  0  0
    2.0339   -1.8715   -1.6268 C   0  0  0  0  0  0
    0.8512   -1.9880    1.2137 C   0  0  0  0  0  0
    3.2851   -1.4170   -0.8739 C   0  0  0  0  0  0
    1.3466    2.6215   -1.3989 C   0  0  0  0  0  0
   -0.4040   -3.3989   -0.4034 C   0  0  0  0  0  0
    2.3370    2.7312   -0.2388 C   0  0  0  0  0  0
    4.0882    0.3636    0.6715 C   0  0  0  0  0  0
   -1.5102   -3.8886    0.5122 C   0  0  0  0  0  0
   -1.9795   -5.3230    0.4237 C   0  0  0  0  0  0
   -1.2264   -4.8537    1.6420 C   0  0  0  0  0  0
    4.6164   -1.8561   -1.0346 C   0  0  0  0  0  0
    5.4099   -0.0974    0.5072 C   0  0  0  0  0  0
   -1.6262    0.7336   -1.0694 C   0  0  0  0  0  0
    5.6670   -1.2116   -0.3319 C   0  0  0  0  0  0
   -2.8214    1.1668   -0.2145 C   0  0  0  0  0  0
   -4.1265    1.2422   -1.0196 C   0  0  0  0  0  0
   -5.3045    1.6621   -0.1614 C   0  0  0  0  0  0
   -5.6198    3.0290   -0.0105 C   0  0  0  0  0  0
   -6.0869    0.6882    0.4943 C   0  0  0  0  0  0
   -6.7116    3.4190    0.7895 C   0  0  0  0  0  0
   -7.1787    1.0789    1.2941 C   0  0  0  0  0  0
   -7.4914    2.4442    1.4416 C   0  0  0  0  0  0
   -0.0112   -1.3560   -2.0209 H   0  0  0  0  0  0
    1.6392    2.0598    1.6810 H   0  0  0  0  0  0
    0.3231   -0.0418    1.9885 H   0  0  0  0  0  0
    1.9188   -0.5564    2.4300 H   0  0  0  0  0  0
    0.5291    1.1279   -2.7397 H   0  0  0  0  0  0
    2.1790    0.8573   -2.3080 H   0  0  0  0  0  0
    2.1971   -1.5851   -2.6663 H   0  0  0  0  0  0
    2.0074   -2.9605   -1.6373 H   0  0  0  0  0  0
    1.7525   -2.5914    1.1010 H   0  0  0  0  0  0
    0.2870   -2.4391    2.0299 H   0  0  0  0  0  0
    0.3791    3.0005   -1.0695 H   0  0  0  0  0  0
    1.6788    3.2669   -2.2125 H   0  0  0  0  0  0
    0.4283   -4.1039   -0.3947 H   0  0  0  0  0  0
   -0.8042   -3.3934   -1.4179 H   0  0  0  0  0  0
   -2.2998   -3.1581    0.6807 H   0  0  0  0  0  0
   -1.4577   -5.9880   -0.2619 H   0  0  0  0  0  0
   -3.0457   -5.5111    0.5338 H   0  0  0  0  0  0
   -1.7900   -4.7259    2.5641 H   0  0  0  0  0  0
   -0.2042   -5.2060    1.7666 H   0  0  0  0  0  0
    4.8396   -2.6708   -1.7077 H   0  0  0  0  0  0
   -1.4905    1.4430   -1.8851 H   0  0  0  0  0  0
   -1.8350   -0.2423   -1.5055 H   0  0  0  0  0  0
    6.6824   -1.5556   -0.4646 H   0  0  0  0  0  0
   -2.9440    0.4667    0.6129 H   0  0  0  0  0  0
   -2.6114    2.1397    0.2320 H   0  0  0  0  0  0
    6.1424    1.2817    1.6469 H   0  0  0  0  0  0
   -4.0173    1.9479   -1.8442 H   0  0  0  0  0  0
   -4.3437    0.2738   -1.4722 H   0  0  0  0  0  0
   -5.0247    3.7820   -0.5064 H   0  0  0  0  0  0
   -5.8517   -0.3606    0.3868 H   0  0  0  0  0  0
   -6.9508    4.4661    0.9032 H   0  0  0  0  0  0
   -7.7761    0.3313    1.7947 H   0  0  0  0  0  0
   -8.3285    2.7435    2.0550 H   0  0  0  0  0  0
    0.0522   -2.0337   -0.0400 N   0  3  2  0  0  0
   -0.7948   -1.5223    0.1663 H   0  0  0  0  0  0
  1  6  1  0  0  0
  1 24  1  0  0  0
  2  8  1  0  0  0
  2 18  1  0  0  0
  3 17  2  0  0  0
  4 23  1  0  0  0
  4 59  1  0  0  0
  5  6  1  0  0  0
  5  8  1  0  0  0
  5  9  1  0  0  0
  5 10  1  0  0  0
  6  7  1  0  0  0
  6 11  1  0  0  0
  7 12  1  0  0  0
  7 34  1  0  0  0
  7 67  1  0  0  0
  8 17  1  0  0  0
  8 35  1  0  0  0
  9 13  1  0  0  0
  9 36  1  0  0  0
  9 37  1  0  0  0
 10 14  2  0  0  0
 10 18  1  0  0  0
 11 15  1  0  0  0
 11 38  1  0  0  0
 11 39  1  0  0  0
 12 14  1  0  0  0
 12 40  1  0  0  0
 12 41  1  0  0  0
 13 42  1  0  0  0
 13 43  1  0  0  0
 13 67  1  0  0  0
 14 22  1  0  0  0
 15 17  1  0  0  0
 15 44  1  0  0  0
 15 45  1  0  0  0
 16 19  1  0  0  0
 16 46  1  0  0  0
 16 47  1  0  0  0
 16 67  1  0  0  0
 18 23  2  0  0  0
 19 20  1  0  0  0
 19 21  1  0  0  0
 19 48  1  0  0  0
 20 21  1  0  0  0
 20 49  1  0  0  0
 20 50  1  0  0  0
 21 51  1  0  0  0
 21 52  1  0  0  0
 22 25  2  0  0  0
 22 53  1  0  0  0
 23 25  1  0  0  0
 24 26  1  0  0  0
 24 54  1  0  0  0
 24 55  1  0  0  0
 25 56  1  0  0  0
 26 27  1  0  0  0
 26 57  1  0  0  0
 26 58  1  0  0  0
 27 28  1  0  0  0
 27 60  1  0  0  0
 27 61  1  0  0  0
 28 29  2  0  0  0
 28 30  1  0  0  0
 29 31  1  0  0  0
 29 62  1  0  0  0
 30 32  2  0  0  0
 30 63  1  0  0  0
 31 33  2  0  0  0
 31 64  1  0  0  0
 32 33  1  0  0  0
 32 65  1  0  0  0
 33 66  1  0  0  0
 67 68  1  0  0  0
M  CHG  1  67   1
M  END
> <LID>
L022104

> <PC_CID>
44215691

> <Names>


> <CAS_Numbers>


$$$$
44215690
                    3D
 Structure written by MMmdl.
 65 70  0  0  1  0            999 V2000
   -0.7460    0.2188   -0.6957 O   0  0  0  0  0  0
    3.4838    0.4085   -2.0877 O   0  0  0  0  0  0
    2.3198   -1.3066   -3.8837 O   0  0  0  0  0  0
    6.2383   -0.4486   -1.3820 O   0  0  0  0  0  0
    1.6477    0.2404   -0.5895 C   0  0  1  0  0  0
    0.3684   -0.5588   -0.2285 C   0  0  1  0  0  0
    0.3565   -0.6544    1.3272 C   0  0  1  0  0  0
    2.0440    0.3051   -2.0992 C   0  0  2  0  0  0
    1.5264    1.6745   -0.0021 C   0  0  0  0  0  0
    2.8750   -0.4039   -0.0209 C   0  0  0  0  0  0
    0.3678   -1.9275   -0.9528 C   0  0  0  0  0  0
    1.6233   -1.3775    1.8853 C   0  0  0  0  0  0
    1.2741    1.6699    1.5187 C   0  0  0  0  0  0
    2.9578   -1.1011    1.1917 C   0  0  0  0  0  0
    0.4260   -1.7469   -2.4787 C   0  0  0  0  0  0
    1.6637   -0.9560   -2.9046 C   0  0  0  0  0  0
    3.8962   -0.1848   -0.9253 C   0  0  0  0  0  0
   -0.3630    0.8497    3.2452 C   0  0  0  0  0  0
    4.2451   -1.5567    1.5470 C   0  0  0  0  0  0
    5.1765   -0.6372   -0.5474 C   0  0  0  0  0  0
   -2.0707   -0.2595   -0.4790 C   0  0  0  0  0  0
    5.3486   -1.3069    0.6910 C   0  0  0  0  0  0
    0.6829    0.7309    4.3400 C   0  0  0  0  0  0
   -3.0437    0.8080   -0.9897 C   0  0  0  0  0  0
   -4.5133    0.4019   -0.8093 C   0  0  0  0  0  0
    0.6630   -0.1964    5.3094 C   0  0  0  0  0  0
   -5.4675    1.4679   -1.3130 C   0  0  0  0  0  0
   -5.9317    2.4742   -0.4397 C   0  0  0  0  0  0
   -5.8910    1.4611   -2.6588 C   0  0  0  0  0  0
   -6.8150    3.4660   -0.9091 C   0  0  0  0  0  0
   -6.7743    2.4533   -3.1276 C   0  0  0  0  0  0
   -7.2366    3.4556   -2.2529 C   0  0  0  0  0  0
   -0.5068   -1.2383    1.6456 H   0  0  0  0  0  0
    1.5964    1.1699   -2.5894 H   0  0  0  0  0  0
    0.7158    2.2108   -0.4969 H   0  0  0  0  0  0
    2.4264    2.2535   -0.2146 H   0  0  0  0  0  0
   -0.5067   -2.5166   -0.6797 H   0  0  0  0  0  0
    1.2192   -2.5323   -0.6396 H   0  0  0  0  0  0
    1.4625   -2.4516    1.7886 H   0  0  0  0  0  0
    1.7476   -1.2153    2.9522 H   0  0  0  0  0  0
    2.1845    1.4014    2.0548 H   0  0  0  0  0  0
    1.0111    2.6768    1.8450 H   0  0  0  0  0  0
   -0.4619   -1.2267   -2.8382 H   0  0  0  0  0  0
    0.4411   -2.7213   -2.9676 H   0  0  0  0  0  0
   -0.8307    1.8296    3.3452 H   0  0  0  0  0  0
   -1.1575    0.1183    3.3995 H   0  0  0  0  0  0
    4.3883   -2.1135    2.4614 H   0  0  0  0  0  0
   -2.2459   -1.1912   -1.0157 H   0  0  0  0  0  0
   -2.2613   -0.4412    0.5779 H   0  0  0  0  0  0
    6.3290   -1.6623    0.9727 H   0  0  0  0  0  0
    1.4864    1.4528    4.3265 H   0  0  0  0  0  0
   -2.8578    1.7457   -0.4643 H   0  0  0  0  0  0
   -2.8456    1.0002   -2.0450 H   0  0  0  0  0  0
    5.9935   -0.0134   -2.1848 H   0  0  0  0  0  0
   -4.7114   -0.5312   -1.3385 H   0  0  0  0  0  0
   -4.7214    0.2067    0.2436 H   0  0  0  0  0  0
   -0.1221   -0.9365    5.3647 H   0  0  0  0  0  0
    1.4359   -0.2270    6.0635 H   0  0  0  0  0  0
   -5.6112    2.4892    0.5917 H   0  0  0  0  0  0
   -5.5387    0.6963   -3.3355 H   0  0  0  0  0  0
   -7.1690    4.2350   -0.2384 H   0  0  0  0  0  0
   -7.0968    2.4455   -4.1583 H   0  0  0  0  0  0
   -7.9139    4.2162   -2.6126 H   0  0  0  0  0  0
    0.1743    0.7327    1.8618 N   0  3  2  0  0  0
   -0.5972    1.0704    1.3025 H   0  0  0  0  0  0
  1  6  1  0  0  0
  1 21  1  0  0  0
  2  8  1  0  0  0
  2 17  1  0  0  0
  3 16  2  0  0  0
  4 20  1  0  0  0
  4 54  1  0  0  0
  5  6  1  0  0  0
  5  8  1  0  0  0
  5  9  1  0  0  0
  5 10  1  0  0  0
  6  7  1  0  0  0
  6 11  1  0  0  0
  7 12  1  0  0  0
  7 33  1  0  0  0
  7 64  1  0  0  0
  8 16  1  0  0  0
  8 34  1  0  0  0
  9 13  1  0  0  0
  9 35  1  0  0  0
  9 36  1  0  0  0
 10 14  2  0  0  0
 10 17  1  0  0  0
 11 15  1  0  0  0
 11 37  1  0  0  0
 11 38  1  0  0  0
 12 14  1  0  0  0
 12 39  1  0  0  0
 12 40  1  0  0  0
 13 41  1  0  0  0
 13 42  1  0  0  0
 13 64  1  0  0  0
 14 19  1  0  0  0
 15 16  1  0  0  0
 15 43  1  0  0  0
 15 44  1  0  0  0
 17 20  2  0  0  0
 18 23  1  0  0  0
 18 45  1  0  0  0
 18 46  1  0  0  0
 18 64  1  0  0  0
 19 22  2  0  0  0
 19 47  1  0  0  0
 20 22  1  0  0  0
 21 24  1  0  0  0
 21 48  1  0  0  0
 21 49  1  0  0  0
 22 50  1  0  0  0
 23 26  2  0  0  0
 23 51  1  0  0  0
 24 25  1  0  0  0
 24 52  1  0  0  0
 24 53  1  0  0  0
 25 27  1  0  0  0
 25 55  1  0  0  0
 25 56  1  0  0  0
 26 57  1  0  0  0
 26 58  1  0  0  0
 27 28  2  0  0  0
 27 29  1  0  0  0
 28 30  1  0  0  0
 28 59  1  0  0  0
 29 31  2  0  0  0
 29 60  1  0  0  0
 30 32  2  0  0  0
 30 61  1  0  0  0
 31 32  1  0  0  0
 31 62  1  0  0  0
 32 63  1  0  0  0
 64 65  1  0  0  0
M  CHG  1  64   1
M  END
> <LID>
L022103

> <PC_CID>
44215690

> <Names>


> <CAS_Numbers>


$$$$
44215693
                    3D
 Structure written by MMmdl.
 72 78  0  0  1  0            999 V2000
   -0.3024   -0.8452   -0.1938 O   0  0  0  0  0  0
    3.6963   -1.4711    1.6850 O   0  0  0  0  0  0
    3.2053   -3.8826    0.4764 O   0  0  0  0  0  0
   -1.1561    4.2019    0.9020 O   0  0  0  0  0  0
    6.5544   -0.7020    1.4527 O   0  0  0  0  0  0
    1.9585   -0.3988    0.4711 C   0  0  2  0  0  0
    0.9884   -0.5126   -0.7299 C   0  0  2  0  0  0
    0.9589    0.9042   -1.3775 C   0  0  2  0  0  0
    2.3660   -1.7262    1.1864 C   0  0  1  0  0  0
    1.3601    0.6048    1.4923 C   0  0  0  0  0  0
    3.3072    0.0979    0.0445 C   0  0  0  0  0  0
    1.4466   -1.6408   -1.6865 C   0  0  0  0  0  0
    2.3653    1.3823   -1.8575 C   0  0  0  0  0  0
    1.0786    1.9853    0.8679 C   0  0  0  0  0  0
    3.5669    1.0104   -0.9875 C   0  0  0  0  0  0
    1.5023   -2.9959   -0.9614 C   0  0  0  0  0  0
    2.4373   -2.9500    0.2478 C   0  0  0  0  0  0
    4.2359   -0.5251    0.8559 C   0  0  0  0  0  0
   -0.0461    3.1703   -1.0207 C   0  0  0  0  0  0
    4.9198    1.3751   -1.1536 C   0  0  0  0  0  0
    5.5803   -0.1391    0.6822 C   0  0  0  0  0  0
   -1.3452    3.7690   -0.4416 C   0  0  1  0  0  0
   -1.3968   -1.0407   -1.0849 C   0  0  0  0  0  0
    5.9149    0.8176   -0.3099 C   0  0  0  0  0  0
   -2.5559    2.8213   -0.4261 C   0  0  0  0  0  0
   -2.6719   -1.1461   -0.2430 C   0  0  0  0  0  0
   -2.8433    2.6407    1.0521 C   0  0  0  0  0  0
   -2.3453    3.9552    1.6357 C   0  0  0  0  0  0
   -3.9415   -1.2387   -1.1000 C   0  0  0  0  0  0
   -5.1999   -1.2117   -0.2546 C   0  0  0  0  0  0
   -5.7996    0.0208    0.0803 C   0  0  0  0  0  0
   -5.7711   -2.4158    0.2082 C   0  0  0  0  0  0
   -6.9642    0.0487    0.8720 C   0  0  0  0  0  0
   -6.9362   -2.3870    0.9995 C   0  0  0  0  0  0
   -7.5328   -1.1551    1.3314 C   0  0  0  0  0  0
    0.3213    0.8745   -2.2604 H   0  0  0  0  0  0
    1.6833   -1.9622    2.0029 H   0  0  0  0  0  0
    2.0304    0.7282    2.3442 H   0  0  0  0  0  0
    0.4349    0.2063    1.9104 H   0  0  0  0  0  0
    2.4321   -1.4225   -2.0985 H   0  0  0  0  0  0
    0.7905   -1.7094   -2.5537 H   0  0  0  0  0  0
    2.3796    2.4578   -2.0325 H   0  0  0  0  0  0
    2.5583    0.9352   -2.8332 H   0  0  0  0  0  0
    0.5123    2.5757    1.5854 H   0  0  0  0  0  0
    2.0096    2.5283    0.7031 H   0  0  0  0  0  0
    1.8460   -3.7704   -1.6475 H   0  0  0  0  0  0
    0.5096   -3.2919   -0.6225 H   0  0  0  0  0  0
   -0.2071    3.0372   -2.0911 H   0  0  0  0  0  0
    0.7754    3.8820   -0.9288 H   0  0  0  0  0  0
    5.2017    2.0651   -1.9354 H   0  0  0  0  0  0
   -1.6061    4.6527   -1.0258 H   0  0  0  0  0  0
   -1.4972   -0.2122   -1.7835 H   0  0  0  0  0  0
   -1.2693   -1.9519   -1.6689 H   0  0  0  0  0  0
    6.9475    1.1033   -0.4478 H   0  0  0  0  0  0
   -2.3841    1.8758   -0.9390 H   0  0  0  0  0  0
   -3.4063    3.3032   -0.9104 H   0  0  0  0  0  0
   -2.6064   -2.0109    0.4184 H   0  0  0  0  0  0
   -2.7411   -0.2718    0.4033 H   0  0  0  0  0  0
   -3.8951    2.4481    1.2654 H   0  0  0  0  0  0
   -2.2548    1.8150    1.4536 H   0  0  0  0  0  0
   -3.0610    4.7587    1.4547 H   0  0  0  0  0  0
   -2.1524    3.8969    2.7070 H   0  0  0  0  0  0
    6.2108   -1.3405    2.0592 H   0  0  0  0  0  0
   -3.9775   -0.4082   -1.8065 H   0  0  0  0  0  0
   -3.9254   -2.1504   -1.6986 H   0  0  0  0  0  0
   -5.3675    0.9476   -0.2677 H   0  0  0  0  0  0
   -5.3170   -3.3638   -0.0405 H   0  0  0  0  0  0
   -7.4213    0.9935    1.1271 H   0  0  0  0  0  0
   -7.3717   -3.3102    1.3526 H   0  0  0  0  0  0
   -8.4259   -1.1337    1.9384 H   0  0  0  0  0  0
    0.3301    1.8630   -0.4130 N   0  3  1  0  0  0
   -0.5470    1.4245   -0.1687 H   0  0  0  0  0  0
  1  7  1  0  0  0
  1 23  1  0  0  0
  2  9  1  0  0  0
  2 18  1  0  0  0
  3 17  2  0  0  0
  4 22  1  0  0  0
  4 28  1  0  0  0
  5 21  1  0  0  0
  5 63  1  0  0  0
  6  7  1  0  0  0
  6  9  1  0  0  0
  6 10  1  0  0  0
  6 11  1  0  0  0
  7  8  1  0  0  0
  7 12  1  0  0  0
  8 13  1  0  0  0
  8 36  1  0  0  0
  8 71  1  0  0  0
  9 17  1  0  0  0
  9 37  1  0  0  0
 10 14  1  0  0  0
 10 38  1  0  0  0
 10 39  1  0  0  0
 11 15  2  0  0  0
 11 18  1  0  0  0
 12 16  1  0  0  0
 12 40  1  0  0  0
 12 41  1  0  0  0
 13 15  1  0  0  0
 13 42  1  0  0  0
 13 43  1  0  0  0
 14 44  1  0  0  0
 14 45  1  0  0  0
 14 71  1  0  0  0
 15 20  1  0  0  0
 16 17  1  0  0  0
 16 46  1  0  0  0
 16 47  1  0  0  0
 18 21  2  0  0  0
 19 22  1  0  0  0
 19 48  1  0  0  0
 19 49  1  0  0  0
 19 71  1  0  0  0
 20 24  2  0  0  0
 20 50  1  0  0  0
 21 24  1  0  0  0
 22 25  1  0  0  0
 22 51  1  0  0  0
 23 26  1  0  0  0
 23 52  1  0  0  0
 23 53  1  0  0  0
 24 54  1  0  0  0
 25 27  1  0  0  0
 25 55  1  0  0  0
 25 56  1  0  0  0
 26 29  1  0  0  0
 26 57  1  0  0  0
 26 58  1  0  0  0
 27 28  1  0  0  0
 27 59  1  0  0  0
 27 60  1  0  0  0
 28 61  1  0  0  0
 28 62  1  0  0  0
 29 30  1  0  0  0
 29 64  1  0  0  0
 29 65  1  0  0  0
 30 31  2  0  0  0
 30 32  1  0  0  0
 31 33  1  0  0  0
 31 66  1  0  0  0
 32 34  2  0  0  0
 32 67  1  0  0  0
 33 35  2  0  0  0
 33 68  1  0  0  0
 34 35  1  0  0  0
 34 69  1  0  0  0
 35 70  1  0  0  0
 71 72  1  0  0  0
M  CHG  1  71   1
M  END
> <LID>
L022106

> <PC_CID>
44215693

> <Names>


> <CAS_Numbers>


$$$$
21837411
                    3D
 Structure written by MMmdl.
 56 59  0  0  1  0            999 V2000
   -5.8781   -1.5488   -1.2371 Br  0  0  0  0  0  0
   -2.3331    3.5019    0.6553 O   0  0  0  0  0  0
    1.4739    0.3057    0.3020 C   0  0  2  0  0  0
    2.0688   -0.1180   -1.0729 C   0  0  1  0  0  0
    2.6220    0.3155    1.3509 C   0  0  0  0  0  0
    0.4088   -0.7543    0.7326 C   0  0  0  0  0  0
    2.9056   -1.4141   -0.9778 C   0  0  0  0  0  0
    0.9723   -0.2217   -2.1535 C   0  0  0  0  0  0
    3.4841   -0.9622    1.3649 C   0  0  0  0  0  0
    0.8867    1.7393    0.2066 C   0  0  0  0  0  0
   -0.5753   -1.1558   -0.3653 C   0  0  0  0  0  0
   -0.2997   -0.8840   -1.6579 C   0  0  0  0  0  0
    4.9165   -2.4536   -0.0054 C   0  0  0  0  0  0
   -0.4759    2.0314    0.4759 C   0  0  0  0  0  0
    1.7234    2.8154   -0.1781 C   0  0  0  0  0  0
   -1.8712   -1.7558    0.0164 C   0  0  0  0  0  0
    6.2876   -2.1472    0.6149 C   0  0  0  0  0  0
   -0.9938    3.3386    0.3728 C   0  0  0  0  0  0
    1.2232    4.1253   -0.2835 C   0  0  0  0  0  0
   -3.0588   -1.4235   -0.6757 C   0  0  0  0  0  0
   -1.9273   -2.6828    1.0811 C   0  0  0  0  0  0
   -0.1290    4.3910   -0.0095 C   0  0  0  0  0  0
   -4.2849   -2.0082   -0.3036 C   0  0  0  0  0  0
   -3.1543   -3.2673    1.4508 C   0  0  0  0  0  0
   -4.3332   -2.9304    0.7590 C   0  0  0  0  0  0
   -2.8843    4.8068    0.5545 C   0  0  0  0  0  0
    2.7698    0.6452   -1.4111 H   0  0  0  0  0  0
    3.3027    1.1446    1.1607 H   0  0  0  0  0  0
    2.2144    0.4967    2.3464 H   0  0  0  0  0  0
    0.8729   -1.6844    1.0522 H   0  0  0  0  0  0
   -0.1280   -0.4045    1.6147 H   0  0  0  0  0  0
    2.2816   -2.2722   -0.7245 H   0  0  0  0  0  0
    3.3353   -1.6262   -1.9578 H   0  0  0  0  0  0
    0.7025    0.7748   -2.5052 H   0  0  0  0  0  0
    1.3421   -0.7625   -3.0251 H   0  0  0  0  0  0
    4.3133   -0.8039    2.0535 H   0  0  0  0  0  0
    2.9279   -1.8127    1.7584 H   0  0  0  0  0  0
   -1.0135   -1.1330   -2.4295 H   0  0  0  0  0  0
    4.4473   -3.3010    0.4968 H   0  0  0  0  0  0
    5.0846   -2.7631   -1.0379 H   0  0  0  0  0  0
   -1.1734    1.2612    0.7621 H   0  0  0  0  0  0
    2.7665    2.6514   -0.4014 H   0  0  0  0  0  0
    6.9588   -2.9980    0.4954 H   0  0  0  0  0  0
    6.7571   -1.2889    0.1333 H   0  0  0  0  0  0
    6.2201   -1.9409    1.6827 H   0  0  0  0  0  0
    1.8804    4.9303   -0.5779 H   0  0  0  0  0  0
   -3.0446   -0.7098   -1.4862 H   0  0  0  0  0  0
   -1.0325   -2.9579    1.6194 H   0  0  0  0  0  0
   -0.4781    5.4081   -0.1020 H   0  0  0  0  0  0
   -3.1909   -3.9759    2.2651 H   0  0  0  0  0  0
   -5.2736   -3.3789    1.0437 H   0  0  0  0  0  0
   -3.9444    4.7696    0.8053 H   0  0  0  0  0  0
   -2.4053    5.4970    1.2502 H   0  0  0  0  0  0
   -2.7995    5.1984   -0.4601 H   0  0  0  0  0  0
    4.0049   -1.2808    0.0110 N   0  3  1  0  0  0
    4.5550   -0.4880   -0.2876 H   0  0  0  0  0  0
  1 23  1  0  0  0
  2 18  1  0  0  0
  2 26  1  0  0  0
  3  4  1  0  0  0
  3  5  1  0  0  0
  3  6  1  0  0  0
  3 10  1  0  0  0
  4  7  1  0  0  0
  4  8  1  0  0  0
  4 27  1  0  0  0
  5  9  1  0  0  0
  5 28  1  0  0  0
  5 29  1  0  0  0
  6 11  1  0  0  0
  6 30  1  0  0  0
  6 31  1  0  0  0
  7 32  1  0  0  0
  7 33  1  0  0  0
  7 55  1  0  0  0
  8 12  1  0  0  0
  8 34  1  0  0  0
  8 35  1  0  0  0
  9 36  1  0  0  0
  9 37  1  0  0  0
  9 55  1  0  0  0
 10 14  2  0  0  0
 10 15  1  0  0  0
 11 12  2  0  0  0
 11 16  1  0  0  0
 12 38  1  0  0  0
 13 17  1  0  0  0
 13 39  1  0  0  0
 13 40  1  0  0  0
 13 55  1  0  0  0
 14 18  1  0  0  0
 14 41  1  0  0  0
 15 19  2  0  0  0
 15 42  1  0  0  0
 16 20  2  0  0  0
 16 21  1  0  0  0
 17 43  1  0  0  0
 17 44  1  0  0  0
 17 45  1  0  0  0
 18 22  2  0  0  0
 19 22  1  0  0  0
 19 46  1  0  0  0
 20 23  1  0  0  0
 20 47  1  0  0  0
 21 24  2  0  0  0
 21 48  1  0  0  0
 22 49  1  0  0  0
 23 25  2  0  0  0
 24 25  1  0  0  0
 24 50  1  0  0  0
 25 51  1  0  0  0
 26 52  1  0  0  0
 26 53  1  0  0  0
 26 54  1  0  0  0
 55 56  1  0  0  0
M  CHG  1  55   1
M  END
> <LID>
L016310

> <PC_CID>
21837411

> <Names>


> <CAS_Numbers>


$$$$
21837416
                    3D
 Structure written by MMmdl.
 58 61  0  0  1  0            999 V2000
   -4.8011   -3.0880   -0.2674 O   0  0  0  0  0  0
   -1.4620    0.4972    0.3643 C   0  0  2  0  0  0
   -1.8950    1.2014   -0.9603 C   0  0  1  0  0  0
   -2.2755    1.1141    1.5369 C   0  0  0  0  0  0
   -1.8590    2.7426   -0.8453 C   0  0  0  0  0  0
    0.0584    0.7709    0.6055 C   0  0  0  0  0  0
   -1.0782    0.7026   -2.1747 C   0  0  0  0  0  0
   -2.2757    2.6546    1.5722 C   0  0  0  0  0  0
   -1.7887   -1.0178    0.2949 C   0  0  0  0  0  0
    0.9194    0.5739   -0.6357 C   0  0  0  0  0  0
    0.4009    0.5451   -1.8764 C   0  0  0  0  0  0
   -2.8171    4.7080    0.2903 C   0  0  0  0  0  0
   -3.1203   -1.4387    0.0518 C   0  0  0  0  0  0
   -0.8023   -2.0229    0.4594 C   0  0  0  0  0  0
   -4.0360    5.2029    1.0827 C   0  0  0  0  0  0
    2.3185    0.3790   -0.4402 C   0  0  0  0  0  0
   -3.4746   -2.8005   -0.0268 C   0  0  0  0  0  0
   -1.1395   -3.3863    0.3833 C   0  0  0  0  0  0
   -2.4671   -3.7789    0.1421 C   0  0  0  0  0  0
    3.5076    0.1864   -0.2396 C   0  0  0  0  0  0
    4.9192   -0.0547    0.0072 C   0  0  0  0  0  0
   -5.1847   -4.4527   -0.3534 C   0  0  0  0  0  0
    5.3214   -1.1552    0.7926 C   0  0  0  0  0  0
    5.8903    0.8110   -0.5380 C   0  0  0  0  0  0
    6.6902   -1.3884    1.0315 C   0  0  0  0  0  0
    7.2587    0.5764   -0.2981 C   0  0  0  0  0  0
    7.6586   -0.5230    0.4864 C   0  0  0  0  0  0
   -2.9378    0.9629   -1.1689 H   0  0  0  0  0  0
   -1.9114    0.7232    2.4879 H   0  0  0  0  0  0
   -3.3189    0.8057    1.4766 H   0  0  0  0  0  0
   -0.8390    3.1081   -0.7203 H   0  0  0  0  0  0
   -2.2255    3.1718   -1.7789 H   0  0  0  0  0  0
    0.4377    0.2016    1.4552 H   0  0  0  0  0  0
    0.2237    1.8087    0.8866 H   0  0  0  0  0  0
   -1.2040    1.3731   -3.0253 H   0  0  0  0  0  0
   -1.4493   -0.2713   -2.4957 H   0  0  0  0  0  0
   -2.9534    2.9753    2.3626 H   0  0  0  0  0  0
   -1.2952    3.0460    1.8425 H   0  0  0  0  0  0
    1.0400    0.3720   -2.7314 H   0  0  0  0  0  0
   -1.8985    5.1470    0.6826 H   0  0  0  0  0  0
   -2.9196    5.0733   -0.7325 H   0  0  0  0  0  0
   -3.9054   -0.7099   -0.0801 H   0  0  0  0  0  0
    0.2334   -1.7855    0.6399 H   0  0  0  0  0  0
   -4.1369    6.2846    0.9908 H   0  0  0  0  0  0
   -4.9581    4.7547    0.7112 H   0  0  0  0  0  0
   -3.9553    4.9786    2.1459 H   0  0  0  0  0  0
   -0.3727   -4.1365    0.5095 H   0  0  0  0  0  0
   -2.6858   -4.8346    0.0906 H   0  0  0  0  0  0
   -6.2557   -4.5137   -0.5461 H   0  0  0  0  0  0
   -4.6732   -4.9599   -1.1726 H   0  0  0  0  0  0
   -4.9872   -4.9821    0.5797 H   0  0  0  0  0  0
    4.5851   -1.8242    1.2146 H   0  0  0  0  0  0
    5.5923    1.6567   -1.1412 H   0  0  0  0  0  0
    6.9970   -2.2315    1.6330 H   0  0  0  0  0  0
    8.0014    1.2399   -0.7161 H   0  0  0  0  0  0
    8.7078   -0.7024    0.6700 H   0  0  0  0  0  0
   -2.7085    3.2266    0.2719 N   0  3  1  0  0  0
   -3.6377    2.8749    0.0894 H   0  0  0  0  0  0
  1 17  1  0  0  0
  1 22  1  0  0  0
  2  3  1  0  0  0
  2  4  1  0  0  0
  2  6  1  0  0  0
  2  9  1  0  0  0
  3  5  1  0  0  0
  3  7  1  0  0  0
  3 28  1  0  0  0
  4  8  1  0  0  0
  4 29  1  0  0  0
  4 30  1  0  0  0
  5 31  1  0  0  0
  5 32  1  0  0  0
  5 57  1  0  0  0
  6 10  1  0  0  0
  6 33  1  0  0  0
  6 34  1  0  0  0
  7 11  1  0  0  0
  7 35  1  0  0  0
  7 36  1  0  0  0
  8 37  1  0  0  0
  8 38  1  0  0  0
  8 57  1  0  0  0
  9 13  2  0  0  0
  9 14  1  0  0  0
 10 11  2  0  0  0
 10 16  1  0  0  0
 11 39  1  0  0  0
 12 15  1  0  0  0
 12 40  1  0  0  0
 12 41  1  0  0  0
 12 57  1  0  0  0
 13 17  1  0  0  0
 13 42  1  0  0  0
 14 18  2  0  0  0
 14 43  1  0  0  0
 15 44  1  0  0  0
 15 45  1  0  0  0
 15 46  1  0  0  0
 16 20  3  0  0  0
 17 19  2  0  0  0
 18 19  1  0  0  0
 18 47  1  0  0  0
 19 48  1  0  0  0
 20 21  1  0  0  0
 21 23  2  0  0  0
 21 24  1  0  0  0
 22 49  1  0  0  0
 22 50  1  0  0  0
 22 51  1  0  0  0
 23 25  1  0  0  0
 23 52  1  0  0  0
 24 26  2  0  0  0
 24 53  1  0  0  0
 25 27  2  0  0  0
 25 54  1  0  0  0
 26 27  1  0  0  0
 26 55  1  0  0  0
 27 56  1  0  0  0
 57 58  1  0  0  0
M  CHG  1  57   1
M  END
> <LID>
L016313

> <PC_CID>
21837416

> <Names>


> <CAS_Numbers>


$$$$
44215282
                    3D
 Structure written by MMmdl.
 65 70  0  0  1  0            999 V2000
   -1.5702    1.2632   -1.8555 O   0  0  0  0  0  0
    3.0719   -2.5457    2.1361 O   0  0  0  0  0  0
    0.8583   -1.5872    0.6212 N   0  0  0  0  0  0
    4.3781   -1.0926    0.9746 N   0  0  0  0  0  0
   -2.5993   -0.1140   -0.1229 C   0  0  2  0  0  0
   -1.9974    1.2896   -0.5001 C   0  0  2  0  0  0
   -3.1163    2.3494   -0.3688 C   0  0  1  0  0  0
   -3.0846   -0.0187    1.3517 C   0  0  0  0  0  0
   -1.5131   -1.2328   -0.2139 C   0  0  0  0  0  0
   -0.7110    1.6924    0.2902 C   0  0  0  0  0  0
   -3.8390   -0.4315   -0.9877 C   0  0  0  0  0  0
   -4.2669    2.0837   -1.3648 C   0  0  0  0  0  0
   -4.1034    1.1158    1.5779 C   0  0  0  0  0  0
    0.1938    0.5141    0.5364 C   0  0  0  0  0  0
   -0.1956   -0.7685    0.3012 C   0  0  0  0  0  0
   -4.6230    0.6131   -1.5543 C   0  0  0  0  0  0
   -4.2507   -1.7717   -1.1892 C   0  0  0  0  0  0
    1.5340    0.4882    1.0382 C   0  0  0  0  0  0
   -5.7655    0.3036   -2.3213 C   0  0  0  0  0  0
    1.9312   -0.8304    1.0421 C   0  0  0  0  0  0
   -5.3929   -2.0708   -1.9547 C   0  0  0  0  0  0
   -6.1496   -1.0332   -2.5245 C   0  0  0  0  0  0
    2.3234    1.6948    1.4782 C   0  0  0  0  0  0
    3.1770   -1.5314    1.4435 C   0  0  0  0  0  0
    5.6155   -1.6659    1.5307 C   0  0  0  0  0  0
    4.5149   -0.1736   -0.1120 C   0  0  0  0  0  0
    6.0433   -2.9283    0.7670 C   0  0  0  0  0  0
    5.3309    0.9731    0.0260 C   0  0  0  0  0  0
    3.8691   -0.4132   -1.3487 C   0  0  0  0  0  0
    5.4792    1.8756   -1.0448 C   0  0  0  0  0  0
    4.0177    0.4908   -2.4178 C   0  0  0  0  0  0
    4.8212    1.6363   -2.2658 C   0  0  0  0  0  0
   -2.7112    3.3399   -0.5811 H   0  0  0  0  0  0
   -3.5315   -0.9645    1.6614 H   0  0  0  0  0  0
   -2.2387    0.1337    2.0224 H   0  0  0  0  0  0
   -1.3777   -1.5242   -1.2563 H   0  0  0  0  0  0
   -1.8210   -2.1313    0.3216 H   0  0  0  0  0  0
   -0.9669    2.0909    1.2714 H   0  0  0  0  0  0
   -0.1589    2.4825   -0.2212 H   0  0  0  0  0  0
   -3.9833    2.4690   -2.3451 H   0  0  0  0  0  0
   -5.1582    2.6417   -1.0744 H   0  0  0  0  0  0
   -5.0653    0.8705    1.1273 H   0  0  0  0  0  0
   -4.2951    1.2374    2.6442 H   0  0  0  0  0  0
   -2.2782    0.9320   -2.3879 H   0  0  0  0  0  0
   -3.7038   -2.5944   -0.7558 H   0  0  0  0  0  0
    0.8588   -2.5951    0.5518 H   0  0  0  0  0  0
   -6.3559    1.0966   -2.7571 H   0  0  0  0  0  0
   -5.6904   -3.0987   -2.1013 H   0  0  0  0  0  0
   -7.0268   -1.2620   -3.1119 H   0  0  0  0  0  0
    2.7152    2.2245    0.6100 H   0  0  0  0  0  0
    3.1571    1.4086    2.1194 H   0  0  0  0  0  0
    1.6869    2.3797    2.0383 H   0  0  0  0  0  0
    6.4296   -0.9430    1.4922 H   0  0  0  0  0  0
    5.4968   -1.8959    2.5912 H   0  0  0  0  0  0
    6.9674   -3.3344    1.1785 H   0  0  0  0  0  0
    5.2842   -3.7086    0.8273 H   0  0  0  0  0  0
    6.2174   -2.7110   -0.2873 H   0  0  0  0  0  0
    5.8337    1.1790    0.9594 H   0  0  0  0  0  0
    3.2555   -1.2921   -1.4837 H   0  0  0  0  0  0
    6.0970    2.7538   -0.9282 H   0  0  0  0  0  0
    3.5164    0.3035   -3.3560 H   0  0  0  0  0  0
    4.9351    2.3295   -3.0863 H   0  0  0  0  0  0
   -3.6143    2.4031    1.0322 N   0  3  0  0  0  0
   -4.3555    3.0867    1.0927 H   0  0  0  0  0  0
   -2.8497    2.7117    1.6156 H   0  0  0  0  0  0
  1  6  1  0  0  0
  1 44  1  0  0  0
  2 24  2  0  0  0
  3 15  1  0  0  0
  3 20  1  0  0  0
  3 46  1  0  0  0
  4 24  1  0  0  0
  4 25  1  0  0  0
  4 26  1  0  0  0
  5  6  1  0  0  0
  5  8  1  0  0  0
  5  9  1  0  0  0
  5 11  1  0  0  0
  6  7  1  0  0  0
  6 10  1  0  0  0
  7 12  1  0  0  0
  7 33  1  0  0  0
  7 63  1  0  0  0
  8 13  1  0  0  0
  8 34  1  0  0  0
  8 35  1  0  0  0
  9 15  1  0  0  0
  9 36  1  0  0  0
  9 37  1  0  0  0
 10 14  1  0  0  0
 10 38  1  0  0  0
 10 39  1  0  0  0
 11 16  1  0  0  0
 11 17  2  0  0  0
 12 16  1  0  0  0
 12 40  1  0  0  0
 12 41  1  0  0  0
 13 42  1  0  0  0
 13 43  1  0  0  0
 13 63  1  0  0  0
 14 15  2  0  0  0
 14 18  1  0  0  0
 16 19  2  0  0  0
 17 21  1  0  0  0
 17 45  1  0  0  0
 18 20  2  0  0  0
 18 23  1  0  0  0
 19 22  1  0  0  0
 19 47  1  0  0  0
 20 24  1  0  0  0
 21 22  2  0  0  0
 21 48  1  0  0  0
 22 49  1  0  0  0
 23 50  1  0  0  0
 23 51  1  0  0  0
 23 52  1  0  0  0
 25 27  1  0  0  0
 25 53  1  0  0  0
 25 54  1  0  0  0
 26 28  2  0  0  0
 26 29  1  0  0  0
 27 55  1  0  0  0
 27 56  1  0  0  0
 27 57  1  0  0  0
 28 30  1  0  0  0
 28 58  1  0  0  0
 29 31  2  0  0  0
 29 59  1  0  0  0
 30 32  2  0  0  0
 30 60  1  0  0  0
 31 32  1  0  0  0
 31 61  1  0  0  0
 32 62  1  0  0  0
 63 64  1  0  0  0
 63 65  1  0  0  0
M  CHG  1  63   1
M  END
> <LID>
L020200

> <PC_CID>
44215282

> <Names>


> <CAS_Numbers>


$$$$
44215283
                    3D
 Structure written by MMmdl.
 64 69  0  0  1  0            999 V2000
   -3.4453    2.8989    0.9229 O   0  0  0  0  0  0
   -0.9171    1.5928    0.8668 N   0  0  0  0  0  0
   -4.4197    0.8562    0.7124 N   0  0  0  0  0  0
    2.5855    0.1650    0.2039 C   0  0  2  0  0  0
    2.2371   -0.1001   -1.2991 C   0  0  1  0  0  0
    3.2509   -1.1008   -1.8786 C   0  0  1  0  0  0
    2.4674   -1.1927    0.9449 C   0  0  0  0  0  0
    1.5886    1.1934    0.8247 C   0  0  0  0  0  0
    0.7647   -0.5070   -1.5938 C   0  0  0  0  0  0
    4.0438    0.6494    0.3383 C   0  0  0  0  0  0
    4.6576   -0.4732   -1.8986 C   0  0  0  0  0  0
    3.3884   -2.2721    0.3409 C   0  0  0  0  0  0
    0.1993    1.0062    0.3248 C   0  0  0  0  0  0
   -0.2033    0.2656   -0.7429 C   0  0  0  0  0  0
    5.0131    0.3322   -0.6541 C   0  0  0  0  0  0
    4.4584    1.3710    1.4844 C   0  0  0  0  0  0
   -1.6245    0.3888   -0.8621 C   0  0  0  0  0  0
    6.3475    0.7633   -0.5021 C   0  0  0  0  0  0
   -2.0410    1.1910    0.1769 C   0  0  0  0  0  0
    5.7923    1.7953    1.6285 C   0  0  0  0  0  0
    6.7374    1.4954    0.6330 C   0  0  0  0  0  0
   -2.4714   -0.2415   -1.9391 C   0  0  0  0  0  0
   -3.3634    1.7100    0.6080 C   0  0  0  0  0  0
   -5.7758    1.4144    0.8535 C   0  0  0  0  0  0
   -4.2893   -0.5685    0.7702 C   0  0  0  0  0  0
   -6.2999    2.0222   -0.4590 C   0  0  0  0  0  0
   -5.1341   -1.3873   -0.0150 C   0  0  0  0  0  0
   -3.3517   -1.1835    1.6357 C   0  0  0  0  0  0
   -5.0235   -2.7901    0.0408 C   0  0  0  0  0  0
   -3.2417   -2.5861    1.6898 C   0  0  0  0  0  0
   -4.0754   -3.3900    0.8904 C   0  0  0  0  0  0
    2.3767    0.8512   -1.8169 H   0  0  0  0  0  0
    2.9809   -1.3426   -2.9074 H   0  0  0  0  0  0
    2.7087   -1.0674    2.0013 H   0  0  0  0  0  0
    1.4369   -1.5489    0.9205 H   0  0  0  0  0  0
    1.8975    2.2034    0.5517 H   0  0  0  0  0  0
    1.6004    1.1504    1.9143 H   0  0  0  0  0  0
    0.5320   -0.3505   -2.6475 H   0  0  0  0  0  0
    0.6007   -1.5651   -1.3903 H   0  0  0  0  0  0
    4.7238    0.2124   -2.7444 H   0  0  0  0  0  0
    5.4145   -1.2397   -2.0708 H   0  0  0  0  0  0
    4.4341   -2.0598    0.5637 H   0  0  0  0  0  0
    3.1758   -3.2402    0.7947 H   0  0  0  0  0  0
    3.7630    1.6054    2.2754 H   0  0  0  0  0  0
   -0.9237    2.2151    1.6627 H   0  0  0  0  0  0
    7.0815    0.5288   -1.2595 H   0  0  0  0  0  0
    6.0909    2.3486    2.5068 H   0  0  0  0  0  0
    7.7616    1.8204    0.7428 H   0  0  0  0  0  0
   -1.9706   -0.1748   -2.9047 H   0  0  0  0  0  0
   -2.6440   -1.2939   -1.7139 H   0  0  0  0  0  0
   -3.4358    0.2591   -2.0259 H   0  0  0  0  0  0
   -6.4686    0.6432    1.1931 H   0  0  0  0  0  0
   -5.7918    2.1689    1.6419 H   0  0  0  0  0  0
   -7.3198    2.3859   -0.3336 H   0  0  0  0  0  0
   -5.6902    2.8658   -0.7837 H   0  0  0  0  0  0
   -6.3079    1.2880   -1.2644 H   0  0  0  0  0  0
   -5.8647   -0.9463   -0.6763 H   0  0  0  0  0  0
   -2.7106   -0.5834    2.2649 H   0  0  0  0  0  0
   -5.6674   -3.4063   -0.5693 H   0  0  0  0  0  0
   -2.5194   -3.0453    2.3485 H   0  0  0  0  0  0
   -3.9917   -4.4660    0.9329 H   0  0  0  0  0  0
    3.2104   -2.3844   -1.1261 N   0  3  0  0  0  0
    3.9160   -3.0060   -1.4951 H   0  0  0  0  0  0
    2.3047   -2.8008   -1.2890 H   0  0  0  0  0  0
  1 23  2  0  0  0
  2 13  1  0  0  0
  2 19  1  0  0  0
  2 45  1  0  0  0
  3 23  1  0  0  0
  3 24  1  0  0  0
  3 25  1  0  0  0
  4  5  1  0  0  0
  4  7  1  0  0  0
  4  8  1  0  0  0
  4 10  1  0  0  0
  5  6  1  0  0  0
  5  9  1  0  0  0
  5 32  1  0  0  0
  6 11  1  0  0  0
  6 33  1  0  0  0
  6 62  1  0  0  0
  7 12  1  0  0  0
  7 34  1  0  0  0
  7 35  1  0  0  0
  8 13  1  0  0  0
  8 36  1  0  0  0
  8 37  1  0  0  0
  9 14  1  0  0  0
  9 38  1  0  0  0
  9 39  1  0  0  0
 10 15  1  0  0  0
 10 16  2  0  0  0
 11 15  1  0  0  0
 11 40  1  0  0  0
 11 41  1  0  0  0
 12 42  1  0  0  0
 12 43  1  0  0  0
 12 62  1  0  0  0
 13 14  2  0  0  0
 14 17  1  0  0  0
 15 18  2  0  0  0
 16 20  1  0  0  0
 16 44  1  0  0  0
 17 19  2  0  0  0
 17 22  1  0  0  0
 18 21  1  0  0  0
 18 46  1  0  0  0
 19 23  1  0  0  0
 20 21  2  0  0  0
 20 47  1  0  0  0
 21 48  1  0  0  0
 22 49  1  0  0  0
 22 50  1  0  0  0
 22 51  1  0  0  0
 24 26  1  0  0  0
 24 52  1  0  0  0
 24 53  1  0  0  0
 25 27  2  0  0  0
 25 28  1  0  0  0
 26 54  1  0  0  0
 26 55  1  0  0  0
 26 56  1  0  0  0
 27 29  1  0  0  0
 27 57  1  0  0  0
 28 30  2  0  0  0
 28 58  1  0  0  0
 29 31  2  0  0  0
 29 59  1  0  0  0
 30 31  1  0  0  0
 30 60  1  0  0  0
 31 61  1  0  0  0
 62 63  1  0  0  0
 62 64  1  0  0  0
M  CHG  1  62   1
M  END
> <LID>
L020201

> <PC_CID>
44215283

> <Names>


> <CAS_Numbers>


$$$$
44215280
                    3D
 Structure written by MMmdl.
 64 70  0  0  1  0            999 V2000
    2.8328    1.2968    1.6908 O   0  0  0  0  0  0
   -1.0073   -0.5945    0.3591 N   0  0  0  0  0  0
   -3.2587    0.3735    0.3025 N   0  0  0  0  0  0
    2.7684   -0.2433   -0.2038 C   0  0  2  0  0  0
    2.7718    1.2572    0.2704 C   0  0  2  0  0  0
    4.0433    1.9379   -0.2892 C   0  0  1  0  0  0
    2.7290   -0.2268   -1.7585 C   0  0  0  0  0  0
    1.4996   -0.9907    0.3165 C   0  0  0  0  0  0
    1.4750    2.0591   -0.0717 C   0  0  0  0  0  0
    4.0756   -0.9587    0.2035 C   0  0  0  0  0  0
    5.3266    1.2937    0.2806 C   0  0  0  0  0  0
    3.9004    0.5593   -2.3803 C   0  0  0  0  0  0
    0.2339    1.2192    0.0783 C   0  0  0  0  0  0
    0.2830   -0.1339    0.2495 C   0  0  0  0  0  0
    5.2770   -0.2245    0.4117 C   0  0  0  0  0  0
   -1.1405    1.6238    0.0641 C   0  0  0  0  0  0
    4.1161   -2.3697    0.3222 C   0  0  0  0  0  0
   -1.8659    0.4766    0.2706 C   0  0  0  0  0  0
    6.4675   -0.8981    0.7560 C   0  0  0  0  0  0
    5.3087   -3.0334    0.6646 C   0  0  0  0  0  0
   -1.6564    3.0256   -0.1434 C   0  0  0  0  0  0
    6.4852   -2.2977    0.8850 C   0  0  0  0  0  0
   -3.9791    1.0959    1.3437 C   0  0  0  0  0  0
   -3.8782   -0.8431   -0.2147 C   0  0  0  0  0  0
   -5.4093    1.4398    0.9019 C   0  0  0  0  0  0
   -5.3994   -0.8236   -0.2641 C   0  0  0  0  0  0
   -6.1330    0.2602    0.2748 C   0  0  0  0  0  0
   -6.0848   -1.9090   -0.8478 C   0  0  0  0  0  0
   -7.5423    0.2511    0.2194 C   0  0  0  0  0  0
   -7.4920   -1.9152   -0.8992 C   0  0  0  0  0  0
   -8.2207   -0.8351   -0.3660 C   0  0  0  0  0  0
    4.0478    2.9933   -0.0132 H   0  0  0  0  0  0
    1.7921    0.2035   -2.1129 H   0  0  0  0  0  0
    2.7414   -1.2469   -2.1449 H   0  0  0  0  0  0
    1.6489   -1.2751    1.3590 H   0  0  0  0  0  0
    1.3280   -1.9152   -0.2354 H   0  0  0  0  0  0
    1.4904    2.3979   -1.1072 H   0  0  0  0  0  0
    1.3878    2.9603    0.5372 H   0  0  0  0  0  0
    5.5081    1.6893    1.2808 H   0  0  0  0  0  0
    6.1940    1.5819   -0.3147 H   0  0  0  0  0  0
    4.8378    0.0145   -2.2677 H   0  0  0  0  0  0
    3.7466    0.6702   -3.4538 H   0  0  0  0  0  0
    2.7805    2.1958    1.9773 H   0  0  0  0  0  0
    3.2370   -2.9696    0.1462 H   0  0  0  0  0  0
   -1.2805   -1.5570    0.4946 H   0  0  0  0  0  0
    7.3769   -0.3390    0.9218 H   0  0  0  0  0  0
    5.3207   -4.1097    0.7545 H   0  0  0  0  0  0
   -2.6395    3.0118   -0.6145 H   0  0  0  0  0  0
   -1.7357    3.5437    0.8121 H   0  0  0  0  0  0
   -0.9815    3.5905   -0.7863 H   0  0  0  0  0  0
    7.4010   -2.8064    1.1479 H   0  0  0  0  0  0
   -3.4505    1.9997    1.6453 H   0  0  0  0  0  0
   -4.0178    0.4527    2.2236 H   0  0  0  0  0  0
   -3.5699   -1.6884    0.4016 H   0  0  0  0  0  0
   -3.5023   -1.0278   -1.2218 H   0  0  0  0  0  0
   -5.3788    2.2417    0.1634 H   0  0  0  0  0  0
   -5.9795    1.8160    1.7519 H   0  0  0  0  0  0
   -5.5314   -2.7410   -1.2582 H   0  0  0  0  0  0
   -8.1068    1.0779    0.6252 H   0  0  0  0  0  0
   -8.0124   -2.7485   -1.3478 H   0  0  0  0  0  0
   -9.3000   -0.8393   -0.4063 H   0  0  0  0  0  0
    4.0349    1.9058   -1.7770 N   0  3  0  0  0  0
    4.8830    2.3338   -2.1205 H   0  0  0  0  0  0
    3.2506    2.4598   -2.0900 H   0  0  0  0  0  0
  1  5  1  0  0  0
  1 43  1  0  0  0
  2 14  1  0  0  0
  2 18  1  0  0  0
  2 45  1  0  0  0
  3 18  1  0  0  0
  3 23  1  0  0  0
  3 24  1  0  0  0
  4  5  1  0  0  0
  4  7  1  0  0  0
  4  8  1  0  0  0
  4 10  1  0  0  0
  5  6  1  0  0  0
  5  9  1  0  0  0
  6 11  1  0  0  0
  6 32  1  0  0  0
  6 62  1  0  0  0
  7 12  1  0  0  0
  7 33  1  0  0  0
  7 34  1  0  0  0
  8 14  1  0  0  0
  8 35  1  0  0  0
  8 36  1  0  0  0
  9 13  1  0  0  0
  9 37  1  0  0  0
  9 38  1  0  0  0
 10 15  1  0  0  0
 10 17  2  0  0  0
 11 15  1  0  0  0
 11 39  1  0  0  0
 11 40  1  0  0  0
 12 41  1  0  0  0
 12 42  1  0  0  0
 12 62  1  0  0  0
 13 14  2  0  0  0
 13 16  1  0  0  0
 15 19  2  0  0  0
 16 18  2  0  0  0
 16 21  1  0  0  0
 17 20  1  0  0  0
 17 44  1  0  0  0
 19 22  1  0  0  0
 19 46  1  0  0  0
 20 22  2  0  0  0
 20 47  1  0  0  0
 21 48  1  0  0  0
 21 49  1  0  0  0
 21 50  1  0  0  0
 22 51  1  0  0  0
 23 25  1  0  0  0
 23 52  1  0  0  0
 23 53  1  0  0  0
 24 26  1  0  0  0
 24 54  1  0  0  0
 24 55  1  0  0  0
 25 27  1  0  0  0
 25 56  1  0  0  0
 25 57  1  0  0  0
 26 27  1  0  0  0
 26 28  2  0  0  0
 27 29  2  0  0  0
 28 30  1  0  0  0
 28 58  1  0  0  0
 29 31  1  0  0  0
 29 59  1  0  0  0
 30 31  2  0  0  0
 30 60  1  0  0  0
 31 61  1  0  0  0
 62 63  1  0  0  0
 62 64  1  0  0  0
M  CHG  1  62   1
M  END
> <LID>
L020198

> <PC_CID>
44215280

> <Names>


> <CAS_Numbers>


$$$$
44215281
                    3D
 Structure written by MMmdl.
 59 63  0  0  1  0            999 V2000
   -1.5439    0.4363   -2.4046 O   0  0  0  0  0  0
    4.3823   -2.1069    0.4011 O   0  0  0  0  0  0
    1.7515   -1.3183    0.0877 N   0  0  0  0  0  0
   -1.9368   -0.3075   -0.1142 C   0  0  2  0  0  0
   -1.6248    0.9055   -1.0652 C   0  0  2  0  0  0
   -2.8002    1.9072   -0.9767 C   0  0  1  0  0  0
   -2.0540    0.2638    1.3277 C   0  0  0  0  0  0
   -0.7753   -1.3508   -0.1402 C   0  0  0  0  0  0
   -0.2437    1.5970   -0.8272 C   0  0  0  0  0  0
   -3.3012   -0.9426   -0.4618 C   0  0  0  0  0  0
   -4.1177    1.2799   -1.4839 C   0  0  0  0  0  0
   -3.1193    1.3710    1.4515 C   0  0  0  0  0  0
    0.8351    0.6075   -0.4671 C   0  0  0  0  0  0
    0.5594   -0.6916   -0.1713 C   0  0  0  0  0  0
   -4.3237   -0.1798   -1.0936 C   0  0  0  0  0  0
    2.2530    0.7967   -0.3718 C   0  0  0  0  0  0
   -3.5796   -2.2859   -0.1089 C   0  0  0  0  0  0
   -5.5716   -0.7708   -1.3814 C   0  0  0  0  0  0
    2.7941   -0.4214   -0.0188 C   0  0  0  0  0  0
   -4.8280   -2.8665   -0.3987 C   0  0  0  0  0  0
   -5.8244   -2.1104   -1.0385 C   0  0  0  0  0  0
    2.9770    2.0965   -0.6259 C   0  0  0  0  0  0
    4.1550   -0.9080    0.2297 C   0  0  0  0  0  0
    5.3057    0.1081    0.2818 C   0  0  0  0  0  0
    6.6374   -0.4200    0.8631 C   0  0  0  0  0  0
    7.7714    0.5767    0.5829 C   0  0  0  0  0  0
    6.5469   -0.7177    2.3710 C   0  0  0  0  0  0
   -2.5857    2.7810   -1.5937 H   0  0  0  0  0  0
   -1.0954    0.6644    1.6583 H   0  0  0  0  0  0
   -2.2899   -0.5366    2.0303 H   0  0  0  0  0  0
   -0.8616   -1.9695   -1.0344 H   0  0  0  0  0  0
   -0.8299   -2.0285    0.7121 H   0  0  0  0  0  0
   -0.3001    2.3012    0.0023 H   0  0  0  0  0  0
    0.0609    2.1801   -1.6976 H   0  0  0  0  0  0
   -4.1333    1.3207   -2.5739 H   0  0  0  0  0  0
   -4.9729    1.8713   -1.1537 H   0  0  0  0  0  0
   -4.1239    0.9538    1.3817 H   0  0  0  0  0  0
   -3.0576    1.8393    2.4340 H   0  0  0  0  0  0
   -2.3138   -0.0810   -2.5894 H   0  0  0  0  0  0
   -2.8452   -2.8937    0.3961 H   0  0  0  0  0  0
    1.8602   -2.2937    0.3282 H   0  0  0  0  0  0
   -6.3446   -0.1934   -1.8675 H   0  0  0  0  0  0
   -5.0222   -3.8934   -0.1257 H   0  0  0  0  0  0
   -6.7832   -2.5553   -1.2610 H   0  0  0  0  0  0
    2.3010    2.8485   -1.0318 H   0  0  0  0  0  0
    3.3944    2.4884    0.3013 H   0  0  0  0  0  0
    3.7839    1.9536   -1.3441 H   0  0  0  0  0  0
    5.4734    0.4554   -0.7376 H   0  0  0  0  0  0
    4.9854    0.9732    0.8611 H   0  0  0  0  0  0
    6.8983   -1.3480    0.3517 H   0  0  0  0  0  0
    8.7265    0.2006    0.9507 H   0  0  0  0  0  0
    7.8813    0.7574   -0.4868 H   0  0  0  0  0  0
    7.5836    1.5367    1.0650 H   0  0  0  0  0  0
    7.5003   -1.0817    2.7551 H   0  0  0  0  0  0
    6.2834    0.1776    2.9349 H   0  0  0  0  0  0
    5.8000   -1.4799    2.5919 H   0  0  0  0  0  0
   -2.9424    2.4142    0.4148 N   0  3  0  0  0  0
   -3.7254    3.0513    0.4551 H   0  0  0  0  0  0
   -2.1027    2.9288    0.6390 H   0  0  0  0  0  0
  1  5  1  0  0  0
  1 39  1  0  0  0
  2 23  2  0  0  0
  3 14  1  0  0  0
  3 19  1  0  0  0
  3 41  1  0  0  0
  4  5  1  0  0  0
  4  7  1  0  0  0
  4  8  1  0  0  0
  4 10  1  0  0  0
  5  6  1  0  0  0
  5  9  1  0  0  0
  6 11  1  0  0  0
  6 28  1  0  0  0
  6 57  1  0  0  0
  7 12  1  0  0  0
  7 29  1  0  0  0
  7 30  1  0  0  0
  8 14  1  0  0  0
  8 31  1  0  0  0
  8 32  1  0  0  0
  9 13  1  0  0  0
  9 33  1  0  0  0
  9 34  1  0  0  0
 10 15  1  0  0  0
 10 17  2  0  0  0
 11 15  1  0  0  0
 11 35  1  0  0  0
 11 36  1  0  0  0
 12 37  1  0  0  0
 12 38  1  0  0  0
 12 57  1  0  0  0
 13 14  2  0  0  0
 13 16  1  0  0  0
 15 18  2  0  0  0
 16 19  2  0  0  0
 16 22  1  0  0  0
 17 20  1  0  0  0
 17 40  1  0  0  0
 18 21  1  0  0  0
 18 42  1  0  0  0
 19 23  1  0  0  0
 20 21  2  0  0  0
 20 43  1  0  0  0
 21 44  1  0  0  0
 22 45  1  0  0  0
 22 46  1  0  0  0
 22 47  1  0  0  0
 23 24  1  0  0  0
 24 25  1  0  0  0
 24 48  1  0  0  0
 24 49  1  0  0  0
 25 26  1  0  0  0
 25 27  1  0  0  0
 25 50  1  0  0  0
 26 51  1  0  0  0
 26 52  1  0  0  0
 26 53  1  0  0  0
 27 54  1  0  0  0
 27 55  1  0  0  0
 27 56  1  0  0  0
 57 58  1  0  0  0
 57 59  1  0  0  0
M  CHG  1  57   1
M  END
> <LID>
L020199

> <PC_CID>
44215281

> <Names>


> <CAS_Numbers>


$$$$
44215284
                    3D
 Structure written by MMmdl.
 74 79  0  0  1  0            999 V2000
   -2.9069    2.9368   -0.5374 O   0  0  0  0  0  0
    3.6401    1.7813   -2.0426 O   0  0  0  0  0  0
    0.6302    0.3617   -1.6268 N   0  0  0  0  0  0
    3.7083   -0.3780   -1.3146 N   0  0  0  0  0  0
   -2.9122    0.5336   -0.1185 C   0  0  2  0  0  0
   -2.6738    1.9679    0.4760 C   0  0  2  0  0  0
   -3.6984    2.2011    1.6110 C   0  0  1  0  0  0
   -2.6810   -0.4827    1.0360 C   0  0  0  0  0  0
   -1.8925    0.2260   -1.2597 C   0  0  0  0  0  0
   -1.2105    2.2524    0.9378 C   0  0  0  0  0  0
   -4.3762    0.3669   -0.5822 C   0  0  0  0  0  0
   -5.1476    2.1847    1.0764 C   0  0  0  0  0  0
   -3.5812   -0.2181    2.2591 C   0  0  0  0  0  0
   -0.5192    0.7249   -0.9469 C   0  0  0  0  0  0
   -0.1925    1.6198    0.0256 C   0  0  0  0  0  0
   -5.4204    1.1405   -0.0009 C   0  0  0  0  0  0
    1.2182    1.8181   -0.0147 C   0  0  0  0  0  0
   -4.7153   -0.5998   -1.5606 C   0  0  0  0  0  0
    1.7014    1.0087   -1.0128 C   0  0  0  0  0  0
   -6.7545    0.9573   -0.4205 C   0  0  0  0  0  0
   -6.0492   -0.7766   -1.9718 C   0  0  0  0  0  0
    0.6846   -0.5434   -2.7681 C   0  0  0  0  0  0
    2.0038    2.7390    0.8853 C   0  0  0  0  0  0
   -7.0700    0.0043   -1.4045 C   0  0  0  0  0  0
    3.0911    0.8231   -1.4975 C   0  0  0  0  0  0
    5.0402   -0.6118   -1.9317 C   0  0  0  0  0  0
    3.1648   -1.4459   -0.4410 C   0  0  0  0  0  0
    6.1848   -0.1153   -1.0293 C   0  0  0  0  0  0
    5.2746   -2.0628   -2.3938 C   0  0  0  0  0  0
    3.8735   -1.5805    0.8987 C   0  0  0  0  0  0
    4.3356   -2.8433    1.3268 C   0  0  0  0  0  0
    4.0628   -0.4547    1.7298 C   0  0  0  0  0  0
    4.9909   -2.9770    2.5664 C   0  0  0  0  0  0
    4.7179   -0.5882    2.9690 C   0  0  0  0  0  0
    5.1833   -1.8494    3.3874 C   0  0  0  0  0  0
   -3.5219    3.1742    2.0716 H   0  0  0  0  0  0
   -2.8541   -1.4996    0.6809 H   0  0  0  0  0  0
   -1.6397   -0.4636    1.3585 H   0  0  0  0  0  0
   -2.2208    0.7120   -2.1794 H   0  0  0  0  0  0
   -1.8558   -0.8433   -1.4691 H   0  0  0  0  0  0
   -1.0205    3.3237    1.0199 H   0  0  0  0  0  0
   -1.0285    1.8389    1.9293 H   0  0  0  0  0  0
   -5.3750    3.1575    0.6384 H   0  0  0  0  0  0
   -5.8549    2.0573    1.8972 H   0  0  0  0  0  0
   -4.6170   -0.4810    2.0439 H   0  0  0  0  0  0
   -3.2775   -0.8551    3.0901 H   0  0  0  0  0  0
   -3.7476    2.7620   -0.9337 H   0  0  0  0  0  0
   -3.9618   -1.2283   -2.0090 H   0  0  0  0  0  0
   -7.5453    1.5500    0.0160 H   0  0  0  0  0  0
   -6.2894   -1.5159   -2.7218 H   0  0  0  0  0  0
    0.8802   -1.5589   -2.4238 H   0  0  0  0  0  0
   -0.2600   -0.5300   -3.3115 H   0  0  0  0  0  0
    1.4696   -0.2423   -3.4618 H   0  0  0  0  0  0
    1.5623    3.7355    0.8812 H   0  0  0  0  0  0
    1.9930    2.3623    1.9081 H   0  0  0  0  0  0
    3.0412    2.8279    0.5632 H   0  0  0  0  0  0
   -8.0943   -0.1310   -1.7194 H   0  0  0  0  0  0
    5.0939   -0.0289   -2.8532 H   0  0  0  0  0  0
    2.1128   -1.3105   -0.1997 H   0  0  0  0  0  0
    3.1733   -2.4004   -0.9651 H   0  0  0  0  0  0
    7.1381   -0.1566   -1.5566 H   0  0  0  0  0  0
    6.0300    0.9182   -0.7182 H   0  0  0  0  0  0
    6.2872   -0.7232   -0.1310 H   0  0  0  0  0  0
    5.3765   -2.7500   -1.5536 H   0  0  0  0  0  0
    4.4599   -2.4137   -3.0281 H   0  0  0  0  0  0
    6.1929   -2.1361   -2.9770 H   0  0  0  0  0  0
    4.1938   -3.7149    0.7047 H   0  0  0  0  0  0
    3.7112    0.5166    1.4187 H   0  0  0  0  0  0
    5.3460   -3.9451    2.8875 H   0  0  0  0  0  0
    4.8636    0.2774    3.5984 H   0  0  0  0  0  0
    5.6863   -1.9521    4.3377 H   0  0  0  0  0  0
   -3.5088    1.1967    2.6922 N   0  3  0  0  0  0
   -4.1989    1.3538    3.4130 H   0  0  0  0  0  0
   -2.5932    1.3478    3.0912 H   0  0  0  0  0  0
  1  6  1  0  0  0
  1 47  1  0  0  0
  2 25  2  0  0  0
  3 14  1  0  0  0
  3 19  1  0  0  0
  3 22  1  0  0  0
  4 25  1  0  0  0
  4 26  1  0  0  0
  4 27  1  0  0  0
  5  6  1  0  0  0
  5  8  1  0  0  0
  5  9  1  0  0  0
  5 11  1  0  0  0
  6  7  1  0  0  0
  6 10  1  0  0  0
  7 12  1  0  0  0
  7 36  1  0  0  0
  7 72  1  0  0  0
  8 13  1  0  0  0
  8 37  1  0  0  0
  8 38  1  0  0  0
  9 14  1  0  0  0
  9 39  1  0  0  0
  9 40  1  0  0  0
 10 15  1  0  0  0
 10 41  1  0  0  0
 10 42  1  0  0  0
 11 16  1  0  0  0
 11 18  2  0  0  0
 12 16  1  0  0  0
 12 43  1  0  0  0
 12 44  1  0  0  0
 13 45  1  0  0  0
 13 46  1  0  0  0
 13 72  1  0  0  0
 14 15  2  0  0  0
 15 17  1  0  0  0
 16 20  2  0  0  0
 17 19  2  0  0  0
 17 23  1  0  0  0
 18 21  1  0  0  0
 18 48  1  0  0  0
 19 25  1  0  0  0
 20 24  1  0  0  0
 20 49  1  0  0  0
 21 24  2  0  0  0
 21 50  1  0  0  0
 22 51  1  0  0  0
 22 52  1  0  0  0
 22 53  1  0  0  0
 23 54  1  0  0  0
 23 55  1  0  0  0
 23 56  1  0  0  0
 24 57  1  0  0  0
 26 28  1  0  0  0
 26 29  1  0  0  0
 26 58  1  0  0  0
 27 30  1  0  0  0
 27 59  1  0  0  0
 27 60  1  0  0  0
 28 61  1  0  0  0
 28 62  1  0  0  0
 28 63  1  0  0  0
 29 64  1  0  0  0
 29 65  1  0  0  0
 29 66  1  0  0  0
 30 31  2  0  0  0
 30 32  1  0  0  0
 31 33  1  0  0  0
 31 67  1  0  0  0
 32 34  2  0  0  0
 32 68  1  0  0  0
 33 35  2  0  0  0
 33 69  1  0  0  0
 34 35  1  0  0  0
 34 70  1  0  0  0
 35 71  1  0  0  0
 72 73  1  0  0  0
 72 74  1  0  0  0
M  CHG  1  72   1
M  END
> <LID>
L020202

> <PC_CID>
44215284

> <Names>


> <CAS_Numbers>


$$$$
44215285
                    3D
 Structure written by MMmdl.
 70 75  0  0  1  0            999 V2000
   -3.5485   -1.0251   -2.9063 O   0  0  0  0  0  0
   -1.1613    0.1916   -1.3978 N   0  0  0  0  0  0
   -4.1519   -1.3918   -0.7426 N   0  0  0  0  0  0
    2.3699    0.6428    0.0971 C   0  0  2  0  0  0
    2.7513   -0.8396   -0.2186 C   0  0  1  0  0  0
    3.9730   -1.2334    0.6288 C   0  0  1  0  0  0
    2.0066    0.7094    1.6039 C   0  0  0  0  0  0
    1.1447    1.0859   -0.7604 C   0  0  0  0  0  0
    1.5939   -1.8699   -0.1074 C   0  0  0  0  0  0
    3.5804    1.5698   -0.1376 C   0  0  0  0  0  0
    5.1995   -0.4059    0.2001 C   0  0  0  0  0  0
    3.1611    0.2287    2.5058 C   0  0  0  0  0  0
    0.1249    0.0063   -0.9190 C   0  0  0  0  0  0
    0.3008   -1.3120   -0.6306 C   0  0  0  0  0  0
    4.9094    1.0650   -0.0750 C   0  0  0  0  0  0
   -0.9227   -1.9903   -0.9004 C   0  0  0  0  0  0
    3.3920    2.9555   -0.3623 C   0  0  0  0  0  0
   -1.8114   -1.0382   -1.3372 C   0  0  0  0  0  0
    6.0051    1.9321   -0.2684 C   0  0  0  0  0  0
    4.4910    3.8135   -0.5522 C   0  0  0  0  0  0
   -1.7332    1.4570   -1.8403 C   0  0  0  0  0  0
   -1.1667   -3.4688   -0.7266 C   0  0  0  0  0  0
    5.7988    3.3016   -0.5096 C   0  0  0  0  0  0
   -3.2398   -1.1558   -1.7212 C   0  0  0  0  0  0
   -5.5732   -1.5809   -1.0651 C   0  0  0  0  0  0
   -3.8237   -1.4592    0.6931 C   0  0  0  0  0  0
   -5.8834   -3.0533   -1.3680 C   0  0  0  0  0  0
   -3.3971   -0.1261    1.2931 C   0  0  0  0  0  0
   -2.1867   -0.0317    2.0133 C   0  0  0  0  0  0
   -4.1972    1.0245    1.1240 C   0  0  0  0  0  0
   -1.7722    1.2044    2.5454 C   0  0  0  0  0  0
   -3.7839    2.2598    1.6596 C   0  0  0  0  0  0
   -2.5702    2.3507    2.3677 C   0  0  0  0  0  0
    3.0525   -0.8617   -1.2680 H   0  0  0  0  0  0
    4.2092   -2.2857    0.4655 H   0  0  0  0  0  0
    1.7356    1.7288    1.8819 H   0  0  0  0  0  0
    1.1212    0.1064    1.8068 H   0  0  0  0  0  0
    1.4851    1.3609   -1.7596 H   0  0  0  0  0  0
    0.6806    1.9748   -0.3325 H   0  0  0  0  0  0
    1.4235   -2.1594    0.9295 H   0  0  0  0  0  0
    1.8437   -2.7821   -0.6500 H   0  0  0  0  0  0
    5.5993   -0.8244   -0.7245 H   0  0  0  0  0  0
    5.9958   -0.4930    0.9406 H   0  0  0  0  0  0
    3.9791    0.9493    2.5073 H   0  0  0  0  0  0
    2.8220    0.1579    3.5395 H   0  0  0  0  0  0
    2.4028    3.3858   -0.3863 H   0  0  0  0  0  0
    7.0136    1.5469   -0.2284 H   0  0  0  0  0  0
    4.3295    4.8671   -0.7270 H   0  0  0  0  0  0
   -2.2370    1.3273   -2.7980 H   0  0  0  0  0  0
   -2.4518    1.8135   -1.1030 H   0  0  0  0  0  0
   -0.9606    2.2132   -1.9721 H   0  0  0  0  0  0
   -2.1578   -3.7554   -1.0785 H   0  0  0  0  0  0
   -0.4287   -4.0397   -1.2901 H   0  0  0  0  0  0
   -1.0828   -3.7423    0.3251 H   0  0  0  0  0  0
    6.6431    3.9595   -0.6548 H   0  0  0  0  0  0
   -6.1981   -1.2382   -0.2394 H   0  0  0  0  0  0
   -5.8672   -0.9597   -1.9128 H   0  0  0  0  0  0
   -4.6797   -1.8158    1.2672 H   0  0  0  0  0  0
   -3.0536   -2.2100    0.8631 H   0  0  0  0  0  0
   -6.9415   -3.1875   -1.5933 H   0  0  0  0  0  0
   -5.3143   -3.4094   -2.2274 H   0  0  0  0  0  0
   -5.6412   -3.6912   -0.5176 H   0  0  0  0  0  0
   -1.5631   -0.9037    2.1458 H   0  0  0  0  0  0
   -5.1265    0.9654    0.5768 H   0  0  0  0  0  0
   -0.8415    1.2737    3.0886 H   0  0  0  0  0  0
   -4.3971    3.1386    1.5242 H   0  0  0  0  0  0
   -2.2525    3.2989    2.7757 H   0  0  0  0  0  0
    3.6725   -1.0958    2.0803 N   0  3  0  0  0  0
    4.5040   -1.3121    2.6117 H   0  0  0  0  0  0
    2.9646   -1.7795    2.3075 H   0  0  0  0  0  0
  1 24  2  0  0  0
  2 13  1  0  0  0
  2 18  1  0  0  0
  2 21  1  0  0  0
  3 24  1  0  0  0
  3 25  1  0  0  0
  3 26  1  0  0  0
  4  5  1  0  0  0
  4  7  1  0  0  0
  4  8  1  0  0  0
  4 10  1  0  0  0
  5  6  1  0  0  0
  5  9  1  0  0  0
  5 34  1  0  0  0
  6 11  1  0  0  0
  6 35  1  0  0  0
  6 68  1  0  0  0
  7 12  1  0  0  0
  7 36  1  0  0  0
  7 37  1  0  0  0
  8 13  1  0  0  0
  8 38  1  0  0  0
  8 39  1  0  0  0
  9 14  1  0  0  0
  9 40  1  0  0  0
  9 41  1  0  0  0
 10 15  1  0  0  0
 10 17  2  0  0  0
 11 15  1  0  0  0
 11 42  1  0  0  0
 11 43  1  0  0  0
 12 44  1  0  0  0
 12 45  1  0  0  0
 12 68  1  0  0  0
 13 14  2  0  0  0
 14 16  1  0  0  0
 15 19  2  0  0  0
 16 18  2  0  0  0
 16 22  1  0  0  0
 17 20  1  0  0  0
 17 46  1  0  0  0
 18 24  1  0  0  0
 19 23  1  0  0  0
 19 47  1  0  0  0
 20 23  2  0  0  0
 20 48  1  0  0  0
 21 49  1  0  0  0
 21 50  1  0  0  0
 21 51  1  0  0  0
 22 52  1  0  0  0
 22 53  1  0  0  0
 22 54  1  0  0  0
 23 55  1  0  0  0
 25 27  1  0  0  0
 25 56  1  0  0  0
 25 57  1  0  0  0
 26 28  1  0  0  0
 26 58  1  0  0  0
 26 59  1  0  0  0
 27 60  1  0  0  0
 27 61  1  0  0  0
 27 62  1  0  0  0
 28 29  2  0  0  0
 28 30  1  0  0  0
 29 31  1  0  0  0
 29 63  1  0  0  0
 30 32  2  0  0  0
 30 64  1  0  0  0
 31 33  2  0  0  0
 31 65  1  0  0  0
 32 33  1  0  0  0
 32 66  1  0  0  0
 33 67  1  0  0  0
 68 69  1  0  0  0
 68 70  1  0  0  0
M  CHG  1  68   1
M  END
> <LID>
L020203

> <PC_CID>
44215285

> <Names>


> <CAS_Numbers>


$$$$
19435482
                    3D
 Structure written by MMmdl.
 50 54  0  0  1  0            999 V2000
    5.2918   -0.4891   -2.1302 Cl  0  0  0  0  0  0
   -4.5179   -2.8506    1.3808 O   0  0  0  0  0  0
    2.2054    0.2042   -1.3924 N   0  0  0  0  0  0
   -1.5237    0.6172   -0.5358 C   0  0  1  0  0  0
   -1.2045    1.2029    0.8889 C   0  0  1  0  0  0
   -2.7229    1.4015   -1.1414 C   0  0  0  0  0  0
   -0.2731    0.7998   -1.4625 C   0  0  0  0  0  0
    0.0373    0.5503    1.5587 C   0  0  0  0  0  0
   -1.0762    2.7432    0.8661 C   0  0  0  0  0  0
   -2.5788    2.9337   -1.0697 C   0  0  0  0  0  0
    0.9973    0.4466   -0.7657 C   0  0  0  0  0  0
    1.1569    0.3380    0.5858 C   0  0  0  0  0  0
   -1.9266   -0.8736   -0.3779 C   0  0  0  0  0  0
    2.5335   -0.0060    0.8148 C   0  0  0  0  0  0
    3.1813   -0.0855   -0.4557 C   0  0  0  0  0  0
   -2.2644    4.8546    0.4336 C   0  0  0  0  0  0
   -3.0432   -1.2172    0.4260 C   0  0  0  0  0  0
   -1.2162   -1.9329   -1.0017 C   0  0  0  0  0  0
    3.3208   -0.2620    1.9622 C   0  0  0  0  0  0
   -3.4384   -2.5574    0.5999 C   0  0  0  0  0  0
    4.5471   -0.4042   -0.5753 C   0  0  0  0  0  0
   -1.6092   -3.2740   -0.8289 C   0  0  0  0  0  0
   -2.7208   -3.5896   -0.0292 C   0  0  0  0  0  0
    4.6893   -0.5824    1.8508 C   0  0  0  0  0  0
    5.3028   -0.6537    0.5852 C   0  0  0  0  0  0
   -2.0472    1.0123    1.5535 H   0  0  0  0  0  0
   -3.6441    1.1539   -0.6153 H   0  0  0  0  0  0
   -2.8866    1.0920   -2.1745 H   0  0  0  0  0  0
   -0.1721    1.8397   -1.7650 H   0  0  0  0  0  0
   -0.3811    0.2584   -2.4024 H   0  0  0  0  0  0
   -0.2529   -0.4163    1.9717 H   0  0  0  0  0  0
    0.3733    1.1435    2.4097 H   0  0  0  0  0  0
   -0.9217    3.1064    1.8832 H   0  0  0  0  0  0
   -0.2031    3.0559    0.2915 H   0  0  0  0  0  0
   -1.8009    3.2934   -1.7429 H   0  0  0  0  0  0
   -3.5078    3.3928   -1.4105 H   0  0  0  0  0  0
    2.3333    0.2354   -2.3938 H   0  0  0  0  0  0
   -3.2003    5.2903    0.0820 H   0  0  0  0  0  0
   -2.1297    5.1553    1.4732 H   0  0  0  0  0  0
   -1.4482    5.2781   -0.1533 H   0  0  0  0  0  0
   -3.6160   -0.4514    0.9266 H   0  0  0  0  0  0
   -0.3510   -1.7565   -1.6198 H   0  0  0  0  0  0
    2.8645   -0.2113    2.9398 H   0  0  0  0  0  0
   -1.0526   -4.0639   -1.3115 H   0  0  0  0  0  0
   -3.0162   -4.6207    0.0992 H   0  0  0  0  0  0
    5.2707   -0.7744    2.7408 H   0  0  0  0  0  0
    6.3518   -0.8996    0.5065 H   0  0  0  0  0  0
   -4.6992   -3.7766    1.4329 H   0  0  0  0  0  0
   -2.2958    3.3805    0.3143 N   0  3  2  0  0  0
   -3.0683    3.0646    0.8836 H   0  0  0  0  0  0
  1 21  1  0  0  0
  2 20  1  0  0  0
  2 48  1  0  0  0
  3 11  1  0  0  0
  3 15  1  0  0  0
  3 37  1  0  0  0
  4  5  1  0  0  0
  4  6  1  0  0  0
  4  7  1  0  0  0
  4 13  1  0  0  0
  5  8  1  0  0  0
  5  9  1  0  0  0
  5 26  1  0  0  0
  6 10  1  0  0  0
  6 27  1  0  0  0
  6 28  1  0  0  0
  7 11  1  0  0  0
  7 29  1  0  0  0
  7 30  1  0  0  0
  8 12  1  0  0  0
  8 31  1  0  0  0
  8 32  1  0  0  0
  9 33  1  0  0  0
  9 34  1  0  0  0
  9 49  1  0  0  0
 10 35  1  0  0  0
 10 36  1  0  0  0
 10 49  1  0  0  0
 11 12  2  0  0  0
 12 14  1  0  0  0
 13 17  2  0  0  0
 13 18  1  0  0  0
 14 15  2  0  0  0
 14 19  1  0  0  0
 15 21  1  0  0  0
 16 38  1  0  0  0
 16 39  1  0  0  0
 16 40  1  0  0  0
 16 49  1  0  0  0
 17 20  1  0  0  0
 17 41  1  0  0  0
 18 22  2  0  0  0
 18 42  1  0  0  0
 19 24  2  0  0  0
 19 43  1  0  0  0
 20 23  2  0  0  0
 21 25  2  0  0  0
 22 23  1  0  0  0
 22 44  1  0  0  0
 23 45  1  0  0  0
 24 25  1  0  0  0
 24 46  1  0  0  0
 25 47  1  0  0  0
 49 50  1  0  0  0
M  CHG  1  49   1
M  END
> <LID>
L008278

> <PC_CID>
19435482

> <Names>


> <CAS_Numbers>


$$$$
9841259
                    3D
 Structure written by MMmdl.
 55 57  0  0  1  0            999 V2000
    4.1171   -2.2852   -0.2520 O   0  0  0  0  0  0
    4.7493   -0.0994   -0.1404 N   0  0  0  0  0  0
   -2.2588    1.4560    0.6145 C   0  0  0  0  0  0
   -1.3472    2.6658    0.8113 C   0  0  0  0  0  0
   -3.7327    1.8476    0.7002 C   0  0  0  0  0  0
   -1.7180    3.8039   -0.1537 C   0  0  0  0  0  0
   -4.0546    3.0109   -0.2545 C   0  0  0  0  0  0
   -1.8146    0.1933    0.3832 C   0  0  0  0  0  0
   -0.3800   -0.1106    0.2534 C   0  0  0  0  0  0
   -2.7359   -0.9497    0.2616 C   0  0  0  0  0  0
    0.3436    0.3152   -0.8813 C   0  0  0  0  0  0
    0.2734   -0.8779    1.2401 C   0  0  0  0  0  0
    2.3728   -0.7307   -0.0045 C   0  0  0  0  0  0
   -2.8283   -1.6571   -0.9565 C   0  0  0  0  0  0
   -3.5029   -1.3779    1.3679 C   0  0  0  0  0  0
    1.7107    0.0051   -1.0117 C   0  0  0  0  0  0
    1.6406   -1.1890    1.1109 C   0  0  0  0  0  0
    3.8232   -1.0942   -0.1429 C   0  0  0  0  0  0
    6.1728   -0.4031   -0.3484 C   0  0  0  0  0  0
    4.4693    1.3152    0.1565 C   0  0  0  0  0  0
   -3.6911   -2.7641   -1.0741 C   0  0  0  0  0  0
   -4.3662   -2.4845    1.2512 C   0  0  0  0  0  0
   -4.4621   -3.1769    0.0292 C   0  0  0  0  0  0
    6.5273   -0.4203   -1.8418 C   0  0  0  0  0  0
    4.3441    1.5645    1.6668 C   0  0  0  0  0  0
   -0.2913    2.4240    0.7041 H   0  0  0  0  0  0
   -1.4672    3.0089    1.8397 H   0  0  0  0  0  0
   -3.9480    2.1418    1.7281 H   0  0  0  0  0  0
   -4.3993    1.0173    0.4729 H   0  0  0  0  0  0
   -1.1129    4.6871    0.0526 H   0  0  0  0  0  0
   -1.5085    3.5075   -1.1826 H   0  0  0  0  0  0
   -5.0855    3.3384   -0.1174 H   0  0  0  0  0  0
   -3.9615    2.6813   -1.2904 H   0  0  0  0  0  0
   -0.1514    0.8808   -1.6572 H   0  0  0  0  0  0
   -0.2745   -1.2306    2.1019 H   0  0  0  0  0  0
   -2.2372   -1.3500   -1.8070 H   0  0  0  0  0  0
   -3.4302   -0.8558    2.3109 H   0  0  0  0  0  0
    2.2489    0.3333   -1.8894 H   0  0  0  0  0  0
    2.1269   -1.7778    1.8756 H   0  0  0  0  0  0
    6.7954    0.3315    0.1643 H   0  0  0  0  0  0
    6.4390   -1.3592    0.1057 H   0  0  0  0  0  0
    5.2704    1.9409   -0.2396 H   0  0  0  0  0  0
    3.5771    1.6701   -0.3549 H   0  0  0  0  0  0
   -3.7596   -3.2980   -2.0106 H   0  0  0  0  0  0
   -4.9526   -2.8038    2.1002 H   0  0  0  0  0  0
   -5.1230   -4.0265   -0.0605 H   0  0  0  0  0  0
    7.5874   -0.6298   -1.9854 H   0  0  0  0  0  0
    5.9637   -1.1869   -2.3746 H   0  0  0  0  0  0
    6.3124    0.5407   -2.3099 H   0  0  0  0  0  0
    4.1776    2.6222    1.8707 H   0  0  0  0  0  0
    3.5092    1.0114    2.0973 H   0  0  0  0  0  0
    5.2512    1.2646    2.1924 H   0  0  0  0  0  0
   -3.1485    4.1581   -0.0308 N   0  3  0  0  0  0
   -3.3663    4.8845   -0.6982 H   0  0  0  0  0  0
   -3.3097    4.5148    0.9004 H   0  0  0  0  0  0
  1 18  2  0  0  0
  2 18  1  0  0  0
  2 19  1  0  0  0
  2 20  1  0  0  0
  3  4  1  0  0  0
  3  5  1  0  0  0
  3  8  2  0  0  0
  4  6  1  0  0  0
  4 26  1  0  0  0
  4 27  1  0  0  0
  5  7  1  0  0  0
  5 28  1  0  0  0
  5 29  1  0  0  0
  6 30  1  0  0  0
  6 31  1  0  0  0
  6 53  1  0  0  0
  7 32  1  0  0  0
  7 33  1  0  0  0
  7 53  1  0  0  0
  8  9  1  0  0  0
  8 10  1  0  0  0
  9 11  2  0  0  0
  9 12  1  0  0  0
 10 14  2  0  0  0
 10 15  1  0  0  0
 11 16  1  0  0  0
 11 34  1  0  0  0
 12 17  2  0  0  0
 12 35  1  0  0  0
 13 16  2  0  0  0
 13 17  1  0  0  0
 13 18  1  0  0  0
 14 21  1  0  0  0
 14 36  1  0  0  0
 15 22  2  0  0  0
 15 37  1  0  0  0
 16 38  1  0  0  0
 17 39  1  0  0  0
 19 24  1  0  0  0
 19 40  1  0  0  0
 19 41  1  0  0  0
 20 25  1  0  0  0
 20 42  1  0  0  0
 20 43  1  0  0  0
 21 23  2  0  0  0
 21 44  1  0  0  0
 22 23  1  0  0  0
 22 45  1  0  0  0
 23 46  1  0  0  0
 24 47  1  0  0  0
 24 48  1  0  0  0
 24 49  1  0  0  0
 25 50  1  0  0  0
 25 51  1  0  0  0
 25 52  1  0  0  0
 53 54  1  0  0  0
 53 55  1  0  0  0
M  CHG  1  53   1
M  END
> <LID>
L020021

> <PC_CID>
9841259

> <Names>


> <CAS_Numbers>
209808-01-5;209808-47-9

$$$$
11317325
                    3D
 Structure written by MMmdl.
 72 75  0  0  1  0            999 V2000
    2.4237   -0.0955    1.0123 O   0  0  0  0  0  0
   -3.0831   -2.4758   -1.1282 O   0  0  0  0  0  0
   -4.5065   -0.7079   -0.9384 N   0  0  0  0  0  0
    1.5024    3.3534   -0.3394 C   0  0  0  0  0  0
    0.2219    4.1638   -0.1355 C   0  0  0  0  0  0
    2.7777    4.1810   -0.1740 C   0  0  0  0  0  0
    0.4173    5.6475   -0.4892 C   0  0  0  0  0  0
    2.5711    5.3767    0.7705 C   0  0  0  0  0  0
    1.5118    2.0308   -0.6492 C   0  0  0  0  0  0
    2.7775    1.3135   -0.9087 C   0  0  0  0  0  0
    0.2710    1.2333   -0.7417 C   0  0  0  0  0  0
    3.1859    0.2388   -0.0814 C   0  0  0  0  0  0
   -0.0016    0.4874   -1.9088 C   0  0  0  0  0  0
   -0.6295    1.1551    0.3437 C   0  0  0  0  0  0
    3.5633    1.6634   -2.0295 C   0  0  0  0  0  0
   -2.0663   -0.3687   -0.9182 C   0  0  0  0  0  0
   -1.1574   -0.3122   -1.9950 C   0  0  0  0  0  0
   -1.7862    0.3572    0.2595 C   0  0  0  0  0  0
    4.3851   -0.4514   -0.3723 C   0  0  0  0  0  0
    4.7531    0.9691   -2.3162 C   0  0  0  0  0  0
   -3.2686   -1.2644   -1.0044 C   0  0  0  0  0  0
    5.1653   -0.0879   -1.4854 C   0  0  0  0  0  0
    2.0251   -1.4579    1.0753 C   0  0  0  0  0  0
    1.0213   -1.6250    2.2220 C   0  0  0  0  0  0
   -5.7065   -1.5573   -0.9265 C   0  0  0  0  0  0
   -4.7864    0.7371   -0.9748 C   0  0  0  0  0  0
    0.4280   -3.0196    2.2661 C   0  0  0  0  0  0
   -6.0602   -2.0028    0.4993 C   0  0  0  0  0  0
   -4.7164    1.2923   -2.4050 C   0  0  0  0  0  0
    0.9955   -4.0120    3.0926 C   0  0  0  0  0  0
   -0.6961   -3.3300    1.4727 C   0  0  0  0  0  0
    0.4393   -5.3060    3.1258 C   0  0  0  0  0  0
   -1.2520   -4.6233    1.5058 C   0  0  0  0  0  0
   -0.6844   -5.6117    2.3331 C   0  0  0  0  0  0
   -0.0827    4.0775    0.9082 H   0  0  0  0  0  0
   -0.5910    3.7575   -0.7379 H   0  0  0  0  0  0
    3.0871    4.5419   -1.1557 H   0  0  0  0  0  0
    3.5917    3.5628    0.2056 H   0  0  0  0  0  0
   -0.5086    6.2058   -0.3486 H   0  0  0  0  0  0
    0.6762    5.7341   -1.5454 H   0  0  0  0  0  0
    3.4934    5.9473    0.8826 H   0  0  0  0  0  0
    2.3092    5.0091    1.7636 H   0  0  0  0  0  0
    0.6835    0.5184   -2.7435 H   0  0  0  0  0  0
   -0.4232    1.6908    1.2585 H   0  0  0  0  0  0
    3.2498    2.4673   -2.6794 H   0  0  0  0  0  0
   -1.3430   -0.8836   -2.8932 H   0  0  0  0  0  0
   -2.4514    0.2953    1.1088 H   0  0  0  0  0  0
    4.7215   -1.2576    0.2621 H   0  0  0  0  0  0
    5.3479    1.2462   -3.1741 H   0  0  0  0  0  0
    6.0803   -0.6198   -1.7010 H   0  0  0  0  0  0
    1.5607   -1.7435    0.1294 H   0  0  0  0  0  0
    2.8798   -2.1149    1.2382 H   0  0  0  0  0  0
    1.5033   -1.4015    3.1744 H   0  0  0  0  0  0
    0.2096   -0.9057    2.1160 H   0  0  0  0  0  0
   -6.5533   -1.0242   -1.3612 H   0  0  0  0  0  0
   -5.5714   -2.4325   -1.5645 H   0  0  0  0  0  0
   -5.7800    0.9312   -0.5683 H   0  0  0  0  0  0
   -4.1190    1.2986   -0.3247 H   0  0  0  0  0  0
   -6.9600   -2.6181    0.5003 H   0  0  0  0  0  0
   -5.2564   -2.5918    0.9422 H   0  0  0  0  0  0
   -6.2437   -1.1449    1.1467 H   0  0  0  0  0  0
   -4.9652    2.3535   -2.4196 H   0  0  0  0  0  0
   -3.7183    1.1827   -2.8296 H   0  0  0  0  0  0
   -5.4184    0.7783   -3.0622 H   0  0  0  0  0  0
    1.8581   -3.7847    3.7018 H   0  0  0  0  0  0
   -1.1329   -2.5768    0.8345 H   0  0  0  0  0  0
    0.8750   -6.0644    3.7594 H   0  0  0  0  0  0
   -2.1126   -4.8553    0.8955 H   0  0  0  0  0  0
   -1.1099   -6.6041    2.3588 H   0  0  0  0  0  0
    1.4929    6.2837    0.3087 N   0  3  0  0  0  0
    1.0818    6.7113    1.1264 H   0  0  0  0  0  0
    1.9024    7.0139   -0.2567 H   0  0  0  0  0  0
  1 12  1  0  0  0
  1 23  1  0  0  0
  2 21  2  0  0  0
  3 21  1  0  0  0
  3 25  1  0  0  0
  3 26  1  0  0  0
  4  5  1  0  0  0
  4  6  1  0  0  0
  4  9  2  0  0  0
  5  7  1  0  0  0
  5 35  1  0  0  0
  5 36  1  0  0  0
  6  8  1  0  0  0
  6 37  1  0  0  0
  6 38  1  0  0  0
  7 39  1  0  0  0
  7 40  1  0  0  0
  7 70  1  0  0  0
  8 41  1  0  0  0
  8 42  1  0  0  0
  8 70  1  0  0  0
  9 10  1  0  0  0
  9 11  1  0  0  0
 10 12  1  0  0  0
 10 15  2  0  0  0
 11 13  2  0  0  0
 11 14  1  0  0  0
 12 19  2  0  0  0
 13 17  1  0  0  0
 13 43  1  0  0  0
 14 18  2  0  0  0
 14 44  1  0  0  0
 15 20  1  0  0  0
 15 45  1  0  0  0
 16 17  2  0  0  0
 16 18  1  0  0  0
 16 21  1  0  0  0
 17 46  1  0  0  0
 18 47  1  0  0  0
 19 22  1  0  0  0
 19 48  1  0  0  0
 20 22  2  0  0  0
 20 49  1  0  0  0
 22 50  1  0  0  0
 23 24  1  0  0  0
 23 51  1  0  0  0
 23 52  1  0  0  0
 24 27  1  0  0  0
 24 53  1  0  0  0
 24 54  1  0  0  0
 25 28  1  0  0  0
 25 55  1  0  0  0
 25 56  1  0  0  0
 26 29  1  0  0  0
 26 57  1  0  0  0
 26 58  1  0  0  0
 27 30  2  0  0  0
 27 31  1  0  0  0
 28 59  1  0  0  0
 28 60  1  0  0  0
 28 61  1  0  0  0
 29 62  1  0  0  0
 29 63  1  0  0  0
 29 64  1  0  0  0
 30 32  1  0  0  0
 30 65  1  0  0  0
 31 33  2  0  0  0
 31 66  1  0  0  0
 32 34  2  0  0  0
 32 67  1  0  0  0
 33 34  1  0  0  0
 33 68  1  0  0  0
 34 69  1  0  0  0
 70 71  1  0  0  0
 70 72  1  0  0  0
M  CHG  1  70   1
M  END
> <LID>
L023470

> <PC_CID>
11317325

> <Names>


> <CAS_Numbers>


$$$$
11260226
                    3D
 Structure written by MMmdl.
 75 78  0  0  1  0            999 V2000
    6.2472    1.5194    0.1733 O   0  0  0  0  0  0
    0.2722   -3.0035   -1.4225 N   0  0  0  0  0  0
   -4.6416    2.6266   -1.4596 N   0  0  0  0  0  0
    4.9476    3.3812   -0.0111 N   0  0  0  0  0  0
   -0.7133   -0.9622    1.0645 C   0  0  0  0  0  0
   -1.9521   -1.8419    1.1797 C   0  0  0  0  0  0
   -1.0875    0.5145    1.0688 C   0  0  0  0  0  0
   -2.9672   -1.4972    0.0776 C   0  0  0  0  0  0
   -2.1188    0.8201   -0.0302 C   0  0  0  0  0  0
    0.5545   -1.4362    0.9632 C   0  0  0  0  0  0
   -4.3746    0.2655   -0.9086 C   0  0  0  0  0  0
    0.8247   -2.8867    0.9076 C   0  0  0  0  0  0
    1.7050   -0.5385    0.7660 C   0  0  0  0  0  0
   -5.0174    1.6154   -0.6456 C   0  0  0  0  0  0
    0.6787   -3.6287   -0.2950 C   0  0  0  0  0  0
    1.8770    0.1410   -0.4595 C   0  0  0  0  0  0
    2.6714   -0.3807    1.7814 C   0  0  0  0  0  0
    1.2637   -3.5394    2.0800 C   0  0  0  0  0  0
   -5.9504    1.7736    0.4008 C   0  0  0  0  0  0
    0.9604   -5.0152   -0.2908 C   0  0  0  0  0  0
    2.9848    0.9869   -0.6569 C   0  0  0  0  0  0
    3.7801    0.4651    1.5857 C   0  0  0  0  0  0
    3.9322    1.1708    0.3738 C   0  0  0  0  0  0
    1.5423   -4.9180    2.0724 C   0  0  0  0  0  0
    1.3887   -5.6562    0.8863 C   0  0  0  0  0  0
   -0.0061   -3.5822   -2.7279 C   0  0  0  0  0  0
   -6.5166    3.0465    0.6070 C   0  0  0  0  0  0
    5.1344    2.0471    0.1686 C   0  0  0  0  0  0
   -5.1906    3.8433   -1.2540 C   0  0  0  0  0  0
   -6.1290    4.1050   -0.2365 C   0  0  0  0  0  0
    6.0892    4.2648   -0.2901 C   0  0  0  0  0  0
    3.6627    4.0833    0.1444 C   0  0  0  0  0  0
   -1.3724   -4.2769   -2.7728 C   0  0  0  0  0  0
    6.3865    4.3342   -1.7945 C   0  0  0  0  0  0
    3.3297    4.3374    1.6219 C   0  0  0  0  0  0
   -1.7188   -2.9049    1.1378 H   0  0  0  0  0  0
   -2.4004   -1.6716    2.1592 H   0  0  0  0  0  0
   -1.5136    0.7513    2.0445 H   0  0  0  0  0  0
   -0.2245    1.1688    0.9568 H   0  0  0  0  0  0
   -3.8673   -2.0968    0.2191 H   0  0  0  0  0  0
   -2.5590   -1.7646   -0.8983 H   0  0  0  0  0  0
   -2.4060    1.8690    0.0426 H   0  0  0  0  0  0
   -1.6639    0.6852   -1.0131 H   0  0  0  0  0  0
   -3.9638    0.2242   -1.9192 H   0  0  0  0  0  0
   -5.1630   -0.4872   -0.8642 H   0  0  0  0  0  0
    1.1580    0.0130   -1.2553 H   0  0  0  0  0  0
    2.5652   -0.9061    2.7189 H   0  0  0  0  0  0
    1.3819   -2.9816    2.9973 H   0  0  0  0  0  0
   -6.2300    0.9421    1.0311 H   0  0  0  0  0  0
    0.8554   -5.6066   -1.1878 H   0  0  0  0  0  0
    3.1048    1.4936   -1.6038 H   0  0  0  0  0  0
    4.5113    0.5747    2.3737 H   0  0  0  0  0  0
    0.1496   -2.0038   -1.3558 H   0  0  0  0  0  0
    1.8735   -5.4083    2.9761 H   0  0  0  0  0  0
    1.6020   -6.7150    0.8775 H   0  0  0  0  0  0
    0.0196   -2.7810   -3.4668 H   0  0  0  0  0  0
    0.7871   -4.2778   -3.0028 H   0  0  0  0  0  0
   -7.2349    3.2079    1.3973 H   0  0  0  0  0  0
   -4.8715    4.6318   -1.9196 H   0  0  0  0  0  0
   -6.5424    5.0944   -0.1081 H   0  0  0  0  0  0
    5.8920    5.2689    0.0879 H   0  0  0  0  0  0
    6.9796    3.9347    0.2477 H   0  0  0  0  0  0
    3.6993    5.0397   -0.3791 H   0  0  0  0  0  0
    2.8456    3.5487   -0.3351 H   0  0  0  0  0  0
   -1.5602   -4.6932   -3.7626 H   0  0  0  0  0  0
   -1.4305   -5.0946   -2.0542 H   0  0  0  0  0  0
   -2.1783   -3.5777   -2.5500 H   0  0  0  0  0  0
    7.2233    5.0040   -1.9929 H   0  0  0  0  0  0
    6.6464    3.3532   -2.1933 H   0  0  0  0  0  0
    5.5251    4.7053   -2.3506 H   0  0  0  0  0  0
    2.3967    4.8930    1.7171 H   0  0  0  0  0  0
    3.2143    3.4045    2.1739 H   0  0  0  0  0  0
    4.1130    4.9196    2.1082 H   0  0  0  0  0  0
   -3.3186   -0.0535    0.0845 N   0  3  1  0  0  0
   -3.7228    0.1334    0.9912 H   0  0  0  0  0  0
  1 28  2  0  0  0
  2 15  1  0  0  0
  2 26  1  0  0  0
  2 53  1  0  0  0
  3 14  1  0  0  0
  3 29  2  0  0  0
  4 28  1  0  0  0
  4 31  1  0  0  0
  4 32  1  0  0  0
  5  6  1  0  0  0
  5  7  1  0  0  0
  5 10  2  0  0  0
  6  8  1  0  0  0
  6 36  1  0  0  0
  6 37  1  0  0  0
  7  9  1  0  0  0
  7 38  1  0  0  0
  7 39  1  0  0  0
  8 40  1  0  0  0
  8 41  1  0  0  0
  8 74  1  0  0  0
  9 42  1  0  0  0
  9 43  1  0  0  0
  9 74  1  0  0  0
 10 12  1  0  0  0
 10 13  1  0  0  0
 11 14  1  0  0  0
 11 44  1  0  0  0
 11 45  1  0  0  0
 11 74  1  0  0  0
 12 15  1  0  0  0
 12 18  2  0  0  0
 13 16  2  0  0  0
 13 17  1  0  0  0
 14 19  2  0  0  0
 15 20  2  0  0  0
 16 21  1  0  0  0
 16 46  1  0  0  0
 17 22  2  0  0  0
 17 47  1  0  0  0
 18 24  1  0  0  0
 18 48  1  0  0  0
 19 27  1  0  0  0
 19 49  1  0  0  0
 20 25  1  0  0  0
 20 50  1  0  0  0
 21 23  2  0  0  0
 21 51  1  0  0  0
 22 23  1  0  0  0
 22 52  1  0  0  0
 23 28  1  0  0  0
 24 25  2  0  0  0
 24 54  1  0  0  0
 25 55  1  0  0  0
 26 33  1  0  0  0
 26 56  1  0  0  0
 26 57  1  0  0  0
 27 30  2  0  0  0
 27 58  1  0  0  0
 29 30  1  0  0  0
 29 59  1  0  0  0
 30 60  1  0  0  0
 31 34  1  0  0  0
 31 61  1  0  0  0
 31 62  1  0  0  0
 32 35  1  0  0  0
 32 63  1  0  0  0
 32 64  1  0  0  0
 33 65  1  0  0  0
 33 66  1  0  0  0
 33 67  1  0  0  0
 34 68  1  0  0  0
 34 69  1  0  0  0
 34 70  1  0  0  0
 35 71  1  0  0  0
 35 72  1  0  0  0
 35 73  1  0  0  0
 74 75  1  0  0  0
M  CHG  1  74   1
M  END
> <LID>
L023449

> <PC_CID>
11260226

> <Names>


> <CAS_Numbers>


$$$$
10184277
                    3D
 Structure written by MMmdl.
 70 74  0  0  1  0            999 V2000
    5.5591   -0.2791   -1.4892 O   0  0  0  0  0  0
   -4.8648   -4.2875   -1.3290 N   0  0  0  0  0  0
   -5.2873   -3.6209    0.7410 N   0  0  0  0  0  0
   -1.3604    2.6190   -1.3800 N   0  0  0  0  0  0
    5.4011   -2.0742   -0.0957 N   0  0  0  0  0  0
   -1.4023    0.2187    0.9364 C   0  0  0  0  0  0
   -2.8227    0.6917    1.2198 C   0  0  0  0  0  0
   -1.3443   -1.2973    0.7984 C   0  0  0  0  0  0
   -3.7922    0.1717    0.1455 C   0  0  0  0  0  0
   -2.3372   -1.7809   -0.2712 C   0  0  0  0  0  0
   -0.3331    1.0434    0.8044 C   0  0  0  0  0  0
   -4.7313   -1.8344   -0.9376 C   0  0  0  0  0  0
   -0.4804    2.5100    0.8686 C   0  0  0  0  0  0
    0.9970    0.5272    0.4462 C   0  0  0  0  0  0
   -4.9642   -3.2458   -0.4943 C   0  0  0  0  0  0
   -0.9806    3.2475   -0.2385 C   0  0  0  0  0  0
   -0.0778    3.1783    2.0447 C   0  0  0  0  0  0
    2.0302    0.4791    1.4050 C   0  0  0  0  0  0
    1.2634    0.1162   -0.8771 C   0  0  0  0  0  0
   -1.0782    4.6632   -0.1161 C   0  0  0  0  0  0
    3.3062   -0.0008    1.0526 C   0  0  0  0  0  0
    2.5388   -0.3636   -1.2312 C   0  0  0  0  0  0
    3.5616   -0.4456   -0.2632 C   0  0  0  0  0  0
   -0.1813    4.5760    2.1468 C   0  0  0  0  0  0
   -0.6834    5.3198    1.0663 C   0  0  0  0  0  0
   -5.1351   -5.4366   -0.6069 C   0  0  0  0  0  0
   -5.3967   -5.0111    0.6753 C   0  0  0  0  0  0
   -1.5772    5.4165   -1.1988 C   0  0  0  0  0  0
    4.9250   -0.9336   -0.6608 C   0  0  0  0  0  0
   -1.8346    3.3467   -2.4117 C   0  0  0  0  0  0
   -1.9643    4.7458   -2.3719 C   0  0  0  0  0  0
    6.7594   -2.5481   -0.3993 C   0  0  0  0  0  0
    4.6217   -2.9806    0.7639 C   0  0  0  0  0  0
    7.7940   -1.9184    0.5438 C   0  0  0  0  0  0
    3.6995   -3.8915   -0.0599 C   0  0  0  0  0  0
   -3.1188    0.3094    2.1975 H   0  0  0  0  0  0
   -2.8992    1.7759    1.2871 H   0  0  0  0  0  0
   -0.3451   -1.6609    0.5633 H   0  0  0  0  0  0
   -1.6023   -1.7364    1.7629 H   0  0  0  0  0  0
   -3.5652    0.6340   -0.8166 H   0  0  0  0  0  0
   -4.8088    0.4677    0.4074 H   0  0  0  0  0  0
   -2.3108   -2.8702   -0.3129 H   0  0  0  0  0  0
   -2.0249   -1.4211   -1.2531 H   0  0  0  0  0  0
   -5.6737   -1.2898   -0.8650 H   0  0  0  0  0  0
   -4.3839   -1.7895   -1.9710 H   0  0  0  0  0  0
    0.3093    2.6150    2.8810 H   0  0  0  0  0  0
    1.8469    0.8080    2.4172 H   0  0  0  0  0  0
    0.4864    0.1710   -1.6258 H   0  0  0  0  0  0
   -4.6364   -4.2457   -2.3123 H   0  0  0  0  0  0
    4.0886   -0.0261    1.7976 H   0  0  0  0  0  0
    2.7274   -0.6734   -2.2491 H   0  0  0  0  0  0
    0.1257    5.0770    3.0534 H   0  0  0  0  0  0
   -0.7609    6.3944    1.1484 H   0  0  0  0  0  0
   -5.1217   -6.4228   -1.0477 H   0  0  0  0  0  0
   -5.6532   -5.5919    1.5491 H   0  0  0  0  0  0
   -1.6623    6.4917   -1.1350 H   0  0  0  0  0  0
   -2.1206    2.7953   -3.2953 H   0  0  0  0  0  0
   -2.3497    5.2905   -3.2213 H   0  0  0  0  0  0
    6.8081   -3.6350   -0.3181 H   0  0  0  0  0  0
    7.0256   -2.3341   -1.4358 H   0  0  0  0  0  0
    5.2973   -3.6020    1.3533 H   0  0  0  0  0  0
    4.0421   -2.4383    1.5078 H   0  0  0  0  0  0
    8.7952   -2.2881    0.3220 H   0  0  0  0  0  0
    7.8128   -0.8327    0.4440 H   0  0  0  0  0  0
    7.5753   -2.1561    1.5852 H   0  0  0  0  0  0
    3.1612   -4.5831    0.5884 H   0  0  0  0  0  0
    2.9579   -3.3165   -0.6146 H   0  0  0  0  0  0
    4.2686   -4.4843   -0.7766 H   0  0  0  0  0  0
   -3.7197   -1.3060    0.0123 N   0  3  2  0  0  0
   -3.9772   -1.6839    0.9141 H   0  0  0  0  0  0
  1 29  2  0  0  0
  2 15  1  0  0  0
  2 26  1  0  0  0
  2 49  1  0  0  0
  3 15  2  0  0  0
  3 27  1  0  0  0
  4 16  1  0  0  0
  4 30  2  0  0  0
  5 29  1  0  0  0
  5 32  1  0  0  0
  5 33  1  0  0  0
  6  7  1  0  0  0
  6  8  1  0  0  0
  6 11  2  0  0  0
  7  9  1  0  0  0
  7 36  1  0  0  0
  7 37  1  0  0  0
  8 10  1  0  0  0
  8 38  1  0  0  0
  8 39  1  0  0  0
  9 40  1  0  0  0
  9 41  1  0  0  0
  9 69  1  0  0  0
 10 42  1  0  0  0
 10 43  1  0  0  0
 10 69  1  0  0  0
 11 13  1  0  0  0
 11 14  1  0  0  0
 12 15  1  0  0  0
 12 44  1  0  0  0
 12 45  1  0  0  0
 12 69  1  0  0  0
 13 16  1  0  0  0
 13 17  2  0  0  0
 14 18  2  0  0  0
 14 19  1  0  0  0
 16 20  2  0  0  0
 17 24  1  0  0  0
 17 46  1  0  0  0
 18 21  1  0  0  0
 18 47  1  0  0  0
 19 22  2  0  0  0
 19 48  1  0  0  0
 20 25  1  0  0  0
 20 28  1  0  0  0
 21 23  2  0  0  0
 21 50  1  0  0  0
 22 23  1  0  0  0
 22 51  1  0  0  0
 23 29  1  0  0  0
 24 25  2  0  0  0
 24 52  1  0  0  0
 25 53  1  0  0  0
 26 27  2  0  0  0
 26 54  1  0  0  0
 27 55  1  0  0  0
 28 31  2  0  0  0
 28 56  1  0  0  0
 30 31  1  0  0  0
 30 57  1  0  0  0
 31 58  1  0  0  0
 32 34  1  0  0  0
 32 59  1  0  0  0
 32 60  1  0  0  0
 33 35  1  0  0  0
 33 61  1  0  0  0
 33 62  1  0  0  0
 34 63  1  0  0  0
 34 64  1  0  0  0
 34 65  1  0  0  0
 35 66  1  0  0  0
 35 67  1  0  0  0
 35 68  1  0  0  0
 69 70  1  0  0  0
M  CHG  1  69   1
M  END
> <LID>
L020883

> <PC_CID>
10184277

> <Names>


> <CAS_Numbers>


$$$$
11466195
                    3D
 Structure written by MMmdl.
 72 75  0  0  1  0            999 V2000
   -6.8744   -0.3541    1.3709 S   0  0  0  0  0  0
    5.0115   -3.0587   -0.6082 O   0  0  0  0  0  0
    2.9358    6.8770   -1.4964 O   0  0  0  0  0  0
    3.3759   -4.5708   -0.1306 N   0  0  0  0  0  0
    3.1498    7.0795    0.7314 N   0  0  0  0  0  0
   -3.2331    2.1414    0.0455 C   0  0  0  0  0  0
   -3.0032   -0.3115   -0.0575 C   0  0  0  0  0  0
   -1.9955    2.2423    0.9509 C   0  0  0  0  0  0
   -1.7515   -0.2586    0.8353 C   0  0  0  0  0  0
   -1.0373    1.0824    0.7029 C   0  0  0  0  0  0
   -5.1803    0.7663   -0.5737 C   0  0  0  0  0  0
    0.2777    1.2245    0.3941 C   0  0  0  0  0  0
   -6.0461   -0.3852   -0.1661 C   0  0  0  0  0  0
    1.1663    0.0625    0.2222 C   0  0  0  0  0  0
    0.8958    2.5490    0.2153 C   0  0  0  0  0  0
   -6.3042   -1.5487   -0.8547 C   0  0  0  0  0  0
    1.7498   -0.2022   -1.0346 C   0  0  0  0  0  0
    1.4824   -0.7699    1.3176 C   0  0  0  0  0  0
    0.5549    3.3579   -0.8896 C   0  0  0  0  0  0
    1.8771    3.0010    1.1215 C   0  0  0  0  0  0
   -7.1767   -2.4217   -0.1357 C   0  0  0  0  0  0
    2.6137   -1.3014   -1.2023 C   0  0  0  0  0  0
    2.3459   -1.8695    1.1515 C   0  0  0  0  0  0
    2.8994   -2.1547   -0.1158 C   0  0  0  0  0  0
   -5.7418   -1.8766   -2.2053 C   0  0  0  0  0  0
   -7.5680   -1.9205    1.0762 C   0  0  0  0  0  0
    1.1667    4.6131   -1.0702 C   0  0  0  0  0  0
    2.4907    4.2560    0.9424 C   0  0  0  0  0  0
    2.1310    5.0794   -0.1497 C   0  0  0  0  0  0
    3.8444   -3.3067   -0.3027 C   0  0  0  0  0  0
    4.2828   -5.7239   -0.2302 C   0  0  0  0  0  0
    1.9611   -4.9285    0.0650 C   0  0  0  0  0  0
    2.7910    6.4114   -0.3680 C   0  0  0  0  0  0
    4.9470   -6.0296    1.1195 C   0  0  0  0  0  0
    1.1869   -4.9290   -1.2614 C   0  0  0  0  0  0
   -3.9232    2.9494    0.2919 H   0  0  0  0  0  0
   -2.9437    2.2788   -0.9978 H   0  0  0  0  0  0
   -2.7087   -0.3069   -1.1083 H   0  0  0  0  0  0
   -3.5195   -1.2550    0.1205 H   0  0  0  0  0  0
   -1.5251    3.2155    0.8235 H   0  0  0  0  0  0
   -2.3064    2.2009    1.9956 H   0  0  0  0  0  0
   -2.0367   -0.3923    1.8795 H   0  0  0  0  0  0
   -1.1092   -1.1007    0.5831 H   0  0  0  0  0  0
   -5.7440    1.6877   -0.4214 H   0  0  0  0  0  0
   -4.9529    0.7253   -1.6396 H   0  0  0  0  0  0
    1.5351    0.4394   -1.8768 H   0  0  0  0  0  0
    1.0629   -0.5643    2.2917 H   0  0  0  0  0  0
   -0.1791    3.0153   -1.6042 H   0  0  0  0  0  0
    2.1644    2.3825    1.9594 H   0  0  0  0  0  0
   -7.4854   -3.3796   -0.5285 H   0  0  0  0  0  0
    3.0527   -1.4902   -2.1716 H   0  0  0  0  0  0
    2.5824   -2.4927    2.0020 H   0  0  0  0  0  0
   -6.0810   -1.1637   -2.9571 H   0  0  0  0  0  0
   -4.6520   -1.8579   -2.1965 H   0  0  0  0  0  0
   -6.0474   -2.8695   -2.5363 H   0  0  0  0  0  0
   -8.2194   -2.3737    1.8092 H   0  0  0  0  0  0
    0.8891    5.2169   -1.9224 H   0  0  0  0  0  0
    3.2448    4.5721    1.6484 H   0  0  0  0  0  0
    3.7389   -6.6044   -0.5751 H   0  0  0  0  0  0
    5.0486   -5.5546   -0.9891 H   0  0  0  0  0  0
    1.8901   -5.9194    0.5159 H   0  0  0  0  0  0
    1.4708   -4.2742    0.7825 H   0  0  0  0  0  0
    5.6044   -6.8955    1.0398 H   0  0  0  0  0  0
    5.5487   -5.1884    1.4652 H   0  0  0  0  0  0
    4.2025   -6.2472    1.8858 H   0  0  0  0  0  0
    0.1525   -5.2351   -1.1041 H   0  0  0  0  0  0
    1.1709   -3.9391   -1.7175 H   0  0  0  0  0  0
    1.6317   -5.6207   -1.9773 H   0  0  0  0  0  0
    3.5775    7.9895    0.6423 H   0  0  0  0  0  0
    2.9858    6.6780    1.6426 H   0  0  0  0  0  0
   -3.9172    0.8327    0.2028 N   0  3  2  0  0  0
   -4.1844    0.7704    1.1749 H   0  0  0  0  0  0
  1 13  1  0  0  0
  1 26  1  0  0  0
  2 30  2  0  0  0
  3 33  2  0  0  0
  4 30  1  0  0  0
  4 31  1  0  0  0
  4 32  1  0  0  0
  5 33  1  0  0  0
  5 69  1  0  0  0
  5 70  1  0  0  0
  6  8  1  0  0  0
  6 36  1  0  0  0
  6 37  1  0  0  0
  6 71  1  0  0  0
  7  9  1  0  0  0
  7 38  1  0  0  0
  7 39  1  0  0  0
  7 71  1  0  0  0
  8 10  1  0  0  0
  8 40  1  0  0  0
  8 41  1  0  0  0
  9 10  1  0  0  0
  9 42  1  0  0  0
  9 43  1  0  0  0
 10 12  2  0  0  0
 11 13  1  0  0  0
 11 44  1  0  0  0
 11 45  1  0  0  0
 11 71  1  0  0  0
 12 14  1  0  0  0
 12 15  1  0  0  0
 13 16  2  0  0  0
 14 17  2  0  0  0
 14 18  1  0  0  0
 15 19  2  0  0  0
 15 20  1  0  0  0
 16 21  1  0  0  0
 16 25  1  0  0  0
 17 22  1  0  0  0
 17 46  1  0  0  0
 18 23  2  0  0  0
 18 47  1  0  0  0
 19 27  1  0  0  0
 19 48  1  0  0  0
 20 28  2  0  0  0
 20 49  1  0  0  0
 21 26  2  0  0  0
 21 50  1  0  0  0
 22 24  2  0  0  0
 22 51  1  0  0  0
 23 24  1  0  0  0
 23 52  1  0  0  0
 24 30  1  0  0  0
 25 53  1  0  0  0
 25 54  1  0  0  0
 25 55  1  0  0  0
 26 56  1  0  0  0
 27 29  2  0  0  0
 27 57  1  0  0  0
 28 29  1  0  0  0
 28 58  1  0  0  0
 29 33  1  0  0  0
 31 34  1  0  0  0
 31 59  1  0  0  0
 31 60  1  0  0  0
 32 35  1  0  0  0
 32 61  1  0  0  0
 32 62  1  0  0  0
 34 63  1  0  0  0
 34 64  1  0  0  0
 34 65  1  0  0  0
 35 66  1  0  0  0
 35 67  1  0  0  0
 35 68  1  0  0  0
 71 72  1  0  0  0
M  CHG  1  71   1
M  END
> <LID>
L023458

> <PC_CID>
11466195

> <Names>


> <CAS_Numbers>


$$$$
22380691
                    3D
 Structure written by MMmdl.
 81 85  0  0  1  0            999 V2000
   -1.6630   -1.7392   -0.4462 O   0  0  0  0  0  0
    6.8377    0.9143    2.1504 O   0  0  0  0  0  0
   -4.5241    5.2581    0.8892 O   0  0  0  0  0  0
    6.0260   -1.1756    1.5828 N   0  0  0  0  0  0
    8.1748   -0.9252    1.9151 N   0  0  0  0  0  0
   -6.3368    4.4133   -0.2017 N   0  0  0  0  0  0
    4.5922   -0.8689    1.4665 C   0  0  0  0  0  0
    3.7415   -1.6388    2.4933 C   0  0  0  0  0  0
    4.0565   -1.0956    0.0409 C   0  0  0  0  0  0
    2.2524   -1.2855    2.3426 C   0  0  0  0  0  0
    2.5591   -0.7555   -0.0389 C   0  0  0  0  0  0
    0.3080   -1.3476    0.8255 C   0  0  0  0  0  0
    6.6301   -2.4372    1.3809 C   0  0  0  0  0  0
   -0.3037   -2.1523   -0.3390 C   0  0  1  0  0  0
    6.9940   -0.2805    1.9058 C   0  0  0  0  0  0
    7.9836   -2.2663    1.5931 C   0  0  0  0  0  0
    6.1021   -3.6960    1.0339 C   0  0  0  0  0  0
   -0.2375   -3.6696   -0.0932 C   0  0  0  0  0  0
    8.9091   -3.3152    1.4799 C   0  0  0  0  0  0
    7.0099   -4.7746    0.9117 C   0  0  0  0  0  0
    8.3987   -4.5870    1.1322 C   0  0  0  0  0  0
   -2.2045   -1.8388   -1.7037 C   0  0  0  0  0  0
   -2.0955   -0.7755   -2.6340 C   0  0  0  0  0  0
   -2.9176   -3.0041   -2.0555 C   0  0  0  0  0  0
   -1.3867    0.5218   -2.2766 C   0  0  0  0  0  0
   -2.6756   -0.9085   -3.9139 C   0  0  0  0  0  0
   -3.4928   -3.1296   -3.3338 C   0  0  0  0  0  0
   -2.3281    1.5393   -1.6599 C   0  0  0  0  0  0
   -3.3681   -2.0826   -4.2651 C   0  0  0  0  0  0
   -2.9858    2.4819   -2.4769 C   0  0  0  0  0  0
   -2.5498    1.5501   -0.2672 C   0  0  0  0  0  0
   -4.1042    3.4214   -0.5145 C   0  0  0  0  0  0
   -3.8633    3.4239   -1.9064 C   0  0  0  0  0  0
   -3.4275    2.4918    0.3033 C   0  0  0  0  0  0
   -5.0145    4.4385    0.1116 C   0  0  0  0  0  0
   -7.2497    5.4374    0.3270 C   0  0  0  0  0  0
   -7.0001    3.3558   -0.9824 C   0  0  0  0  0  0
   -7.2884    6.6735   -0.5824 C   0  0  0  0  0  0
   -7.2838    2.1122   -0.1271 C   0  0  0  0  0  0
    4.4539    0.1921    1.6838 H   0  0  0  0  0  0
    4.0744   -1.4005    3.5043 H   0  0  0  0  0  0
    3.8638   -2.7144    2.3780 H   0  0  0  0  0  0
    4.2032   -2.1269   -0.2758 H   0  0  0  0  0  0
    4.6111   -0.4773   -0.6661 H   0  0  0  0  0  0
    1.6739   -1.8839    3.0477 H   0  0  0  0  0  0
    2.0836   -0.2391    2.6026 H   0  0  0  0  0  0
    2.4085    0.3114    0.1350 H   0  0  0  0  0  0
    2.2070   -0.9587   -1.0495 H   0  0  0  0  0  0
   -0.1918   -1.6521    1.7464 H   0  0  0  0  0  0
    0.0967   -0.2838    0.7088 H   0  0  0  0  0  0
    0.2229   -1.9209   -1.2656 H   0  0  0  0  0  0
    9.0760   -0.5198    2.1210 H   0  0  0  0  0  0
    5.0489   -3.8526    0.8636 H   0  0  0  0  0  0
   -0.6440   -4.2280   -0.9358 H   0  0  0  0  0  0
    0.7903   -4.0052    0.0443 H   0  0  0  0  0  0
   -0.8023   -3.9503    0.7962 H   0  0  0  0  0  0
    9.9642   -3.1592    1.6504 H   0  0  0  0  0  0
    6.6406   -5.7544    0.6470 H   0  0  0  0  0  0
    9.0736   -5.4246    1.0335 H   0  0  0  0  0  0
   -3.0237   -3.8078   -1.3418 H   0  0  0  0  0  0
   -0.5579    0.3350   -1.5955 H   0  0  0  0  0  0
   -0.9365    0.9456   -3.1753 H   0  0  0  0  0  0
   -2.5988   -0.1032   -4.6299 H   0  0  0  0  0  0
   -4.0324   -4.0271   -3.5983 H   0  0  0  0  0  0
   -3.8114   -2.1757   -5.2457 H   0  0  0  0  0  0
   -2.8184    2.4866   -3.5440 H   0  0  0  0  0  0
   -2.0494    0.8358    0.3692 H   0  0  0  0  0  0
   -4.3525    4.1476   -2.5425 H   0  0  0  0  0  0
   -3.5859    2.4924    1.3723 H   0  0  0  0  0  0
   -8.2567    5.0303    0.4294 H   0  0  0  0  0  0
   -6.9639    5.7313    1.3384 H   0  0  0  0  0  0
   -7.9423    3.7305   -1.3850 H   0  0  0  0  0  0
   -6.4259    3.0784   -1.8637 H   0  0  0  0  0  0
   -7.9801    7.4198   -0.1915 H   0  0  0  0  0  0
   -6.3061    7.1407   -0.6587 H   0  0  0  0  0  0
   -7.6153    6.4128   -1.5894 H   0  0  0  0  0  0
   -7.8105    1.3558   -0.7090 H   0  0  0  0  0  0
   -6.3629    1.6603    0.2420 H   0  0  0  0  0  0
   -7.9047    2.3592    0.7345 H   0  0  0  0  0  0
    1.7760   -1.5370    0.9569 N   0  3  0  0  0  0
    1.9558   -2.5142    0.7751 H   0  0  0  0  0  0
  1 14  1  0  0  0
  1 22  1  0  0  0
  2 15  2  0  0  0
  3 35  2  0  0  0
  4  7  1  0  0  0
  4 13  1  0  0  0
  4 15  1  0  0  0
  5 15  1  0  0  0
  5 16  1  0  0  0
  5 52  1  0  0  0
  6 35  1  0  0  0
  6 36  1  0  0  0
  6 37  1  0  0  0
  7  8  1  0  0  0
  7  9  1  0  0  0
  7 40  1  0  0  0
  8 10  1  0  0  0
  8 41  1  0  0  0
  8 42  1  0  0  0
  9 11  1  0  0  0
  9 43  1  0  0  0
  9 44  1  0  0  0
 10 45  1  0  0  0
 10 46  1  0  0  0
 10 80  1  0  0  0
 11 47  1  0  0  0
 11 48  1  0  0  0
 11 80  1  0  0  0
 12 14  1  0  0  0
 12 49  1  0  0  0
 12 50  1  0  0  0
 12 80  1  0  0  0
 13 16  1  0  0  0
 13 17  2  0  0  0
 14 18  1  0  0  0
 14 51  1  0  0  0
 16 19  2  0  0  0
 17 20  1  0  0  0
 17 53  1  0  0  0
 18 54  1  0  0  0
 18 55  1  0  0  0
 18 56  1  0  0  0
 19 21  1  0  0  0
 19 57  1  0  0  0
 20 21  2  0  0  0
 20 58  1  0  0  0
 21 59  1  0  0  0
 22 23  1  0  0  0
 22 24  2  0  0  0
 23 25  1  0  0  0
 23 26  2  0  0  0
 24 27  1  0  0  0
 24 60  1  0  0  0
 25 28  1  0  0  0
 25 61  1  0  0  0
 25 62  1  0  0  0
 26 29  1  0  0  0
 26 63  1  0  0  0
 27 29  2  0  0  0
 27 64  1  0  0  0
 28 30  2  0  0  0
 28 31  1  0  0  0
 29 65  1  0  0  0
 30 33  1  0  0  0
 30 66  1  0  0  0
 31 34  2  0  0  0
 31 67  1  0  0  0
 32 33  2  0  0  0
 32 34  1  0  0  0
 32 35  1  0  0  0
 33 68  1  0  0  0
 34 69  1  0  0  0
 36 38  1  0  0  0
 36 70  1  0  0  0
 36 71  1  0  0  0
 37 39  1  0  0  0
 37 72  1  0  0  0
 37 73  1  0  0  0
 38 74  1  0  0  0
 38 75  1  0  0  0
 38 76  1  0  0  0
 39 77  1  0  0  0
 39 78  1  0  0  0
 39 79  1  0  0  0
 80 81  1  0  0  0
M  CHG  1  80   1
M  END
> <LID>
L020694

> <PC_CID>
22380691

> <Names>


> <CAS_Numbers>


$$$$
9950655
                    3D
 Structure written by MMmdl.
 52 54  0  0  1  0            999 V2000
   -3.9101    3.3942    0.2744 O   0  0  0  0  0  0
    2.0283   -0.5419    0.0264 C   0  0  1  0  0  0
    2.1744   -2.0156    0.4536 C   0  0  0  0  0  0
    0.8675    0.1678    0.7532 C   0  0  0  0  0  0
    0.9797   -2.9081    0.0779 C   0  0  0  0  0  0
   -0.3315   -2.5314    0.7884 C   0  0  0  0  0  0
   -0.4846   -0.1072    0.1132 C   0  0  0  0  0  0
   -1.0387   -1.3429    0.1438 C   0  0  0  0  0  0
    3.3371    0.2170    0.2086 C   0  0  0  0  0  0
   -2.3821   -1.6690   -0.5116 C   0  0  0  0  0  0
   -1.1901    1.0281   -0.4996 C   0  0  0  0  0  0
    4.0255    0.7254   -0.9146 C   0  0  0  0  0  0
    3.8735    0.4202    1.4996 C   0  0  0  0  0  0
   -2.2311    1.6752    0.1988 C   0  0  0  0  0  0
   -0.7931    1.4916   -1.7704 C   0  0  0  0  0  0
    5.2351    1.4279   -0.7488 C   0  0  0  0  0  0
    5.0829    1.1226    1.6649 C   0  0  0  0  0  0
   -4.8160   -1.3942   -0.3207 C   0  0  0  0  0  0
   -3.5911   -2.4393    1.5256 C   0  0  0  0  0  0
    5.7642    1.6267    0.5407 C   0  0  0  0  0  0
   -2.8964    2.7685   -0.3908 C   0  0  0  0  0  0
   -1.4598    2.5846   -2.3568 C   0  0  0  0  0  0
   -2.5133    3.2195   -1.6697 C   0  0  0  0  0  0
    1.8110   -0.5270   -1.0430 H   0  0  0  0  0  0
    2.3578   -2.0811    1.5268 H   0  0  0  0  0  0
    3.0625   -2.4298   -0.0256 H   0  0  0  0  0  0
    1.0246    1.2472    0.7149 H   0  0  0  0  0  0
    0.8485   -0.0837    1.8143 H   0  0  0  0  0  0
    1.2328   -3.9337    0.3491 H   0  0  0  0  0  0
    0.8349   -2.9146   -1.0033 H   0  0  0  0  0  0
   -0.1485   -2.3226    1.8431 H   0  0  0  0  0  0
   -0.9928   -3.3978    0.7729 H   0  0  0  0  0  0
   -2.5113   -1.0329   -1.3879 H   0  0  0  0  0  0
   -2.3794   -2.6884   -0.9005 H   0  0  0  0  0  0
    3.6308    0.5800   -1.9095 H   0  0  0  0  0  0
    3.3584    0.0382    2.3688 H   0  0  0  0  0  0
   -2.5166    1.3338    1.1830 H   0  0  0  0  0  0
    0.0160    1.0083   -2.2988 H   0  0  0  0  0  0
    5.7573    1.8144   -1.6117 H   0  0  0  0  0  0
    5.4879    1.2748    2.6545 H   0  0  0  0  0  0
   -5.6376   -1.1728    0.3613 H   0  0  0  0  0  0
   -4.7913   -0.6021   -1.0702 H   0  0  0  0  0  0
   -5.0338   -2.3368   -0.8247 H   0  0  0  0  0  0
   -4.4666   -2.2559    2.1495 H   0  0  0  0  0  0
   -3.6491   -3.4627    1.1526 H   0  0  0  0  0  0
   -2.7182   -2.3543    2.1718 H   0  0  0  0  0  0
    6.6918    2.1655    0.6673 H   0  0  0  0  0  0
   -1.1625    2.9377   -3.3334 H   0  0  0  0  0  0
   -3.0219    4.0581   -2.1227 H   0  0  0  0  0  0
   -4.0573    3.0568    1.1445 H   0  0  0  0  0  0
   -3.5310   -1.4676    0.4094 N   0  3  0  0  0  0
   -3.4008   -0.5576    0.8277 H   0  0  0  0  0  0
  1 21  1  0  0  0
  1 50  1  0  0  0
  2  3  1  0  0  0
  2  4  1  0  0  0
  2  9  1  0  0  0
  2 24  1  0  0  0
  3  5  1  0  0  0
  3 25  1  0  0  0
  3 26  1  0  0  0
  4  7  1  0  0  0
  4 27  1  0  0  0
  4 28  1  0  0  0
  5  6  1  0  0  0
  5 29  1  0  0  0
  5 30  1  0  0  0
  6  8  1  0  0  0
  6 31  1  0  0  0
  6 32  1  0  0  0
  7  8  2  0  0  0
  7 11  1  0  0  0
  8 10  1  0  0  0
  9 12  2  0  0  0
  9 13  1  0  0  0
 10 33  1  0  0  0
 10 34  1  0  0  0
 10 51  1  0  0  0
 11 14  2  0  0  0
 11 15  1  0  0  0
 12 16  1  0  0  0
 12 35  1  0  0  0
 13 17  2  0  0  0
 13 36  1  0  0  0
 14 21  1  0  0  0
 14 37  1  0  0  0
 15 22  2  0  0  0
 15 38  1  0  0  0
 16 20  2  0  0  0
 16 39  1  0  0  0
 17 20  1  0  0  0
 17 40  1  0  0  0
 18 41  1  0  0  0
 18 42  1  0  0  0
 18 43  1  0  0  0
 18 51  1  0  0  0
 19 44  1  0  0  0
 19 45  1  0  0  0
 19 46  1  0  0  0
 19 51  1  0  0  0
 20 47  1  0  0  0
 21 23  2  0  0  0
 22 23  1  0  0  0
 22 48  1  0  0  0
 23 49  1  0  0  0
 51 52  1  0  0  0
M  CHG  1  51   1
M  END
> <LID>
L019788

> <PC_CID>
9950655

> <Names>


> <CAS_Numbers>


$$$$
11755575
                    3D
 Structure written by MMmdl.
 74 77  0  0  1  0            999 V2000
    4.6393    3.4578    0.0651 O   0  0  0  0  0  0
   -4.9457   -0.1469    1.2757 O   0  0  0  0  0  0
    6.3785    2.0750    0.5678 N   0  0  0  0  0  0
   -2.8811    0.5121    0.6007 N   0  0  0  0  0  0
   -4.6743    1.8587    0.2288 N   0  0  0  0  0  0
    1.5229   -3.2031   -0.6564 C   0  0  0  0  0  0
    0.5254   -4.3499   -0.8095 C   0  0  0  0  0  0
    2.8374   -3.5074   -1.3727 C   0  0  0  0  0  0
    0.3369   -4.7285   -2.2892 C   0  0  0  0  0  0
    2.5944   -3.8935   -2.8409 C   0  0  0  0  0  0
    1.2702   -2.0542    0.0228 C   0  0  0  0  0  0
    2.2520   -0.9589    0.0832 C   0  0  0  0  0  0
    0.0079   -1.8364    0.7506 C   0  0  0  0  0  0
    2.5342   -0.1847   -1.0628 C   0  0  0  0  0  0
    2.8808   -0.6378    1.3043 C   0  0  0  0  0  0
   -0.8622   -0.7964    0.3599 C   0  0  0  0  0  0
   -0.3249   -2.6304    1.8689 C   0  0  0  0  0  0
    4.1141    1.1728    0.2165 C   0  0  0  0  0  0
    3.4573    0.8763   -0.9963 C   0  0  0  0  0  0
    3.8039    0.4232    1.3725 C   0  0  0  0  0  0
   -2.0694   -0.5638    1.0511 C   0  0  0  0  0  0
   -1.5191   -2.3966    2.5755 C   0  0  0  0  0  0
   -2.3892   -1.3662    2.1724 C   0  0  0  0  0  0
    5.0741    2.3257    0.2800 C   0  0  0  0  0  0
    7.3374    3.1800    0.7139 C   0  0  0  0  0  0
    6.9804    0.7346    0.6625 C   0  0  0  0  0  0
   -4.2087    0.6939    0.7574 C   0  0  0  0  0  0
    7.3586    3.7138    2.1530 C   0  0  0  0  0  0
    7.2756    0.1453   -0.7247 C   0  0  0  0  0  0
   -6.0773    2.0659    0.0451 C   0  0  0  0  0  0
   -3.7812    3.0093    0.0074 C   0  0  0  0  0  0
   -6.6988    3.2289    0.5570 C   0  0  0  0  0  0
   -6.8611    1.1253   -0.6660 C   0  0  0  0  0  0
   -8.0780    3.4433    0.3686 C   0  0  0  0  0  0
   -8.2400    1.3414   -0.8537 C   0  0  0  0  0  0
   -8.8491    2.5000   -0.3363 C   0  0  0  0  0  0
    0.9044   -5.2080   -0.2531 H   0  0  0  0  0  0
   -0.4493   -4.1151   -0.3850 H   0  0  0  0  0  0
    3.5487   -2.6848   -1.3230 H   0  0  0  0  0  0
    3.3142   -4.3396   -0.8533 H   0  0  0  0  0  0
   -0.1595   -3.9164   -2.8227 H   0  0  0  0  0  0
   -0.3062   -5.6046   -2.3764 H   0  0  0  0  0  0
    2.2087   -3.0371   -3.3959 H   0  0  0  0  0  0
    3.5317   -4.1846   -3.3157 H   0  0  0  0  0  0
    2.0405   -0.4039   -1.9984 H   0  0  0  0  0  0
    2.6548   -1.2060    2.1949 H   0  0  0  0  0  0
   -0.6019   -0.1761   -0.4859 H   0  0  0  0  0  0
    0.3398   -3.4190    2.1907 H   0  0  0  0  0  0
    3.6627    1.4599   -1.8823 H   0  0  0  0  0  0
    4.2722    0.6600    2.3171 H   0  0  0  0  0  0
   -1.7651   -3.0038    3.4341 H   0  0  0  0  0  0
   -3.2866   -1.1976    2.7478 H   0  0  0  0  0  0
   -2.4070    1.2155    0.0541 H   0  0  0  0  0  0
    8.3392    2.8514    0.4336 H   0  0  0  0  0  0
    7.1068    3.9918    0.0220 H   0  0  0  0  0  0
    7.9110    0.7873    1.2294 H   0  0  0  0  0  0
    6.3592    0.0486    1.2344 H   0  0  0  0  0  0
    8.0838    4.5212    2.2555 H   0  0  0  0  0  0
    6.3839    4.1058    2.4452 H   0  0  0  0  0  0
    7.6314    2.9306    2.8608 H   0  0  0  0  0  0
    7.7578   -0.8283   -0.6355 H   0  0  0  0  0  0
    6.3633    0.0080   -1.3053 H   0  0  0  0  0  0
    7.9415    0.7936   -1.2950 H   0  0  0  0  0  0
   -4.3055    3.8626   -0.4236 H   0  0  0  0  0  0
   -3.3320    3.3362    0.9464 H   0  0  0  0  0  0
   -2.9814    2.7657   -0.6933 H   0  0  0  0  0  0
   -6.1247    3.9596    1.1076 H   0  0  0  0  0  0
   -6.4075    0.2342   -1.0748 H   0  0  0  0  0  0
   -8.5449    4.3321    0.7669 H   0  0  0  0  0  0
   -8.8303    0.6179   -1.3965 H   0  0  0  0  0  0
   -9.9067    2.6652   -0.4802 H   0  0  0  0  0  0
    1.6329   -5.0125   -2.9423 N   0  3  0  0  0  0
    1.4713   -5.2204   -3.9177 H   0  0  0  0  0  0
    2.0410   -5.8245   -2.5013 H   0  0  0  0  0  0
  1 24  2  0  0  0
  2 27  2  0  0  0
  3 24  1  0  0  0
  3 25  1  0  0  0
  3 26  1  0  0  0
  4 21  1  0  0  0
  4 27  1  0  0  0
  4 53  1  0  0  0
  5 27  1  0  0  0
  5 30  1  0  0  0
  5 31  1  0  0  0
  6  7  1  0  0  0
  6  8  1  0  0  0
  6 11  2  0  0  0
  7  9  1  0  0  0
  7 37  1  0  0  0
  7 38  1  0  0  0
  8 10  1  0  0  0
  8 39  1  0  0  0
  8 40  1  0  0  0
  9 41  1  0  0  0
  9 42  1  0  0  0
  9 72  1  0  0  0
 10 43  1  0  0  0
 10 44  1  0  0  0
 10 72  1  0  0  0
 11 12  1  0  0  0
 11 13  1  0  0  0
 12 14  2  0  0  0
 12 15  1  0  0  0
 13 16  2  0  0  0
 13 17  1  0  0  0
 14 19  1  0  0  0
 14 45  1  0  0  0
 15 20  2  0  0  0
 15 46  1  0  0  0
 16 21  1  0  0  0
 16 47  1  0  0  0
 17 22  2  0  0  0
 17 48  1  0  0  0
 18 19  2  0  0  0
 18 20  1  0  0  0
 18 24  1  0  0  0
 19 49  1  0  0  0
 20 50  1  0  0  0
 21 23  2  0  0  0
 22 23  1  0  0  0
 22 51  1  0  0  0
 23 52  1  0  0  0
 25 28  1  0  0  0
 25 54  1  0  0  0
 25 55  1  0  0  0
 26 29  1  0  0  0
 26 56  1  0  0  0
 26 57  1  0  0  0
 28 58  1  0  0  0
 28 59  1  0  0  0
 28 60  1  0  0  0
 29 61  1  0  0  0
 29 62  1  0  0  0
 29 63  1  0  0  0
 30 32  2  0  0  0
 30 33  1  0  0  0
 31 64  1  0  0  0
 31 65  1  0  0  0
 31 66  1  0  0  0
 32 34  1  0  0  0
 32 67  1  0  0  0
 33 35  2  0  0  0
 33 68  1  0  0  0
 34 36  2  0  0  0
 34 69  1  0  0  0
 35 36  1  0  0  0
 35 70  1  0  0  0
 36 71  1  0  0  0
 72 73  1  0  0  0
 72 74  1  0  0  0
M  CHG  1  72   1
M  END
> <LID>
L022983

> <PC_CID>
11755575

> <Names>


> <CAS_Numbers>


$$$$
22380699
                    3D
 Structure written by MMmdl.
 79 83  0  0  1  0            999 V2000
   -2.3204    3.7446    0.2818 O   0  0  0  0  0  0
    5.5924    0.5614   -1.2889 O   0  0  0  0  0  0
   -1.6392   -4.4041    0.6725 O   0  0  0  0  0  0
    2.8997   -0.5278   -0.1288 N   0  0  0  0  0  0
    4.2862   -2.3427   -0.1369 N   0  0  0  0  0  0
    2.3628    0.7857   -0.4934 C   0  0  0  0  0  0
    2.3626    1.7633    0.6942 C   0  0  0  0  0  0
    0.9514    0.6917   -1.0914 C   0  0  0  0  0  0
    1.7956    3.1300    0.2782 C   0  0  0  0  0  0
    0.4139    2.0838   -1.4694 C   0  0  0  0  0  0
   -0.1536    4.3456   -0.5876 C   0  0  0  0  0  0
    2.4043   -1.4107    0.8359 C   0  0  0  0  0  0
    3.9927   -1.1486   -0.6492 C   0  0  0  0  0  0
    3.2973   -2.5207    0.8066 C   0  0  0  0  0  0
   -1.6699    4.3217   -0.8420 C   0  0  0  0  0  0
    4.8325   -0.5433   -1.7337 C   0  0  0  0  0  0
    1.3088   -1.3859    1.7234 C   0  0  0  0  0  0
    3.0689   -3.5982    1.6915 C   0  0  0  0  0  0
    1.0994   -2.4702    2.5968 C   0  0  0  0  0  0
    1.9760   -3.5726    2.5808 C   0  0  0  0  0  0
   -3.6858    3.5553    0.2150 C   0  0  0  0  0  0
   -4.2659    2.6031    1.0893 C   0  0  0  0  0  0
   -3.4018    1.7983    2.0504 C   0  0  0  0  0  0
   -4.5267    4.2639   -0.6804 C   0  0  0  0  0  0
   -5.6570    2.3694    1.0624 C   0  0  0  0  0  0
   -2.9420    0.4558    1.4968 C   0  0  0  0  0  0
   -5.9141    4.0264   -0.7004 C   0  0  0  0  0  0
   -0.6593   -3.3774   -1.2605 C   0  0  2  0  0  0
   -6.4804    3.0794    0.1706 C   0  0  0  0  0  0
   -1.9993   -2.0424    0.5194 C   0  0  0  0  0  0
    0.5451   -4.3392   -1.1691 C   0  0  0  0  0  0
   -2.8288   -0.6525    2.3608 C   0  0  0  0  0  0
   -2.6068    0.2996    0.1346 C   0  0  0  0  0  0
   -1.4749   -3.3561    0.0466 C   0  0  0  0  0  0
   -2.3698   -1.8922    1.8749 C   0  0  0  0  0  0
   -2.1513   -0.9394   -0.3519 C   0  0  0  0  0  0
   -1.5687   -3.6964   -2.4614 C   0  0  0  0  0  0
    1.6339   -4.0395   -2.2074 C   0  0  0  0  0  0
    3.0014    1.2217   -1.2597 H   0  0  0  0  0  0
    1.7732    1.3731    1.5226 H   0  0  0  0  0  0
    3.3782    1.8870    1.0723 H   0  0  0  0  0  0
    0.9578    0.0454   -1.9700 H   0  0  0  0  0  0
    0.2764    0.2311   -0.3746 H   0  0  0  0  0  0
    2.4586    3.6035   -0.4479 H   0  0  0  0  0  0
    1.7682    3.7826    1.1519 H   0  0  0  0  0  0
   -0.6007    1.9695   -1.8488 H   0  0  0  0  0  0
    1.0090    2.5077   -2.2798 H   0  0  0  0  0  0
    0.0291    5.0013    0.2650 H   0  0  0  0  0  0
    0.3615    4.7963   -1.4372 H   0  0  0  0  0  0
   -2.0042    5.3506   -0.9791 H   0  0  0  0  0  0
   -1.9138    3.7755   -1.7537 H   0  0  0  0  0  0
    5.5169   -1.2984   -2.1226 H   0  0  0  0  0  0
    4.1953   -0.2441   -2.5663 H   0  0  0  0  0  0
    0.6256   -0.5514    1.7440 H   0  0  0  0  0  0
    3.7357   -4.4475    1.6818 H   0  0  0  0  0  0
    0.2622   -2.4590    3.2794 H   0  0  0  0  0  0
    1.8082   -4.4028    3.2514 H   0  0  0  0  0  0
    6.1341    0.8606   -2.0031 H   0  0  0  0  0  0
   -2.5245    2.3736    2.3465 H   0  0  0  0  0  0
   -3.9693    1.6334    2.9674 H   0  0  0  0  0  0
   -4.1340    5.0023   -1.3620 H   0  0  0  0  0  0
   -6.0965    1.6377    1.7246 H   0  0  0  0  0  0
   -0.2457   -2.3782   -1.3928 H   0  0  0  0  0  0
   -6.5452    4.5731   -1.3857 H   0  0  0  0  0  0
   -7.5448    2.8962    0.1538 H   0  0  0  0  0  0
    0.9970   -4.2728   -0.1794 H   0  0  0  0  0  0
    0.2120   -5.3723   -1.2767 H   0  0  0  0  0  0
   -3.0842   -0.5547    3.4059 H   0  0  0  0  0  0
   -2.6886    1.1268   -0.5534 H   0  0  0  0  0  0
   -2.2802   -2.7214    2.5621 H   0  0  0  0  0  0
   -1.9078   -1.0129   -1.4007 H   0  0  0  0  0  0
   -1.0426   -3.5458   -3.4038 H   0  0  0  0  0  0
   -1.9111   -4.7316   -2.4353 H   0  0  0  0  0  0
   -2.4533   -3.0593   -2.4820 H   0  0  0  0  0  0
    2.4902   -4.7001   -2.0703 H   0  0  0  0  0  0
    1.2677   -4.1805   -3.2242 H   0  0  0  0  0  0
    1.9913   -3.0134   -2.1179 H   0  0  0  0  0  0
    0.4311    3.0082   -0.3024 N   0  3  0  0  0  0
   -0.1488    2.5905    0.4122 H   0  0  0  0  0  0
  1 15  1  0  0  0
  1 21  1  0  0  0
  2 16  1  0  0  0
  2 58  1  0  0  0
  3 34  2  0  0  0
  4  6  1  0  0  0
  4 12  1  0  0  0
  4 13  1  0  0  0
  5 13  2  0  0  0
  5 14  1  0  0  0
  6  7  1  0  0  0
  6  8  1  0  0  0
  6 39  1  0  0  0
  7  9  1  0  0  0
  7 40  1  0  0  0
  7 41  1  0  0  0
  8 10  1  0  0  0
  8 42  1  0  0  0
  8 43  1  0  0  0
  9 44  1  0  0  0
  9 45  1  0  0  0
  9 78  1  0  0  0
 10 46  1  0  0  0
 10 47  1  0  0  0
 10 78  1  0  0  0
 11 15  1  0  0  0
 11 48  1  0  0  0
 11 49  1  0  0  0
 11 78  1  0  0  0
 12 14  1  0  0  0
 12 17  2  0  0  0
 13 16  1  0  0  0
 14 18  2  0  0  0
 15 50  1  0  0  0
 15 51  1  0  0  0
 16 52  1  0  0  0
 16 53  1  0  0  0
 17 19  1  0  0  0
 17 54  1  0  0  0
 18 20  1  0  0  0
 18 55  1  0  0  0
 19 20  2  0  0  0
 19 56  1  0  0  0
 20 57  1  0  0  0
 21 22  1  0  0  0
 21 24  2  0  0  0
 22 23  1  0  0  0
 22 25  2  0  0  0
 23 26  1  0  0  0
 23 59  1  0  0  0
 23 60  1  0  0  0
 24 27  1  0  0  0
 24 61  1  0  0  0
 25 29  1  0  0  0
 25 62  1  0  0  0
 26 32  2  0  0  0
 26 33  1  0  0  0
 27 29  2  0  0  0
 27 64  1  0  0  0
 28 31  1  0  0  0
 28 34  1  0  0  0
 28 37  1  0  0  0
 28 63  1  0  0  0
 29 65  1  0  0  0
 30 34  1  0  0  0
 30 35  2  0  0  0
 30 36  1  0  0  0
 31 38  1  0  0  0
 31 66  1  0  0  0
 31 67  1  0  0  0
 32 35  1  0  0  0
 32 68  1  0  0  0
 33 36  2  0  0  0
 33 69  1  0  0  0
 35 70  1  0  0  0
 36 71  1  0  0  0
 37 72  1  0  0  0
 37 73  1  0  0  0
 37 74  1  0  0  0
 38 75  1  0  0  0
 38 76  1  0  0  0
 38 77  1  0  0  0
 78 79  1  0  0  0
M  CHG  1  78   1
M  END
> <LID>
L020701

> <PC_CID>
22380699

> <Names>


> <CAS_Numbers>


$$$$
10160733
                    3D
 Structure written by MMmdl.
 66 69  0  0  1  0            999 V2000
   -7.4004    3.3260    0.5071 O   0  0  0  0  0  0
   -2.3446   -4.6914   -2.0285 O   0  0  0  0  0  0
    6.1831   -0.7473   -0.0982 O   0  0  0  0  0  0
    5.8255    1.4938    0.0988 N   0  0  0  0  0  0
   -1.7721    2.2353   -0.3224 C   0  0  0  0  0  0
   -3.5177    0.4967   -0.2299 C   0  0  0  0  0  0
   -0.9051    1.4590    0.6839 C   0  0  0  0  0  0
   -2.6911   -0.3084    0.7851 C   0  0  0  0  0  0
   -1.1998   -0.0359    0.6213 C   0  0  0  0  0  0
   -4.0635    2.7805   -1.0386 C   0  0  0  0  0  0
   -0.2588   -0.9970    0.4325 C   0  0  0  0  0  0
    1.1753   -0.6745    0.3382 C   0  0  0  0  0  0
   -5.5074    2.8029   -0.6040 C   0  0  0  0  0  0
   -0.6151   -2.4207    0.3107 C   0  0  0  0  0  0
    1.8786   -0.9204   -0.8598 C   0  0  0  0  0  0
    1.8730   -0.1637    1.4541 C   0  0  0  0  0  0
   -6.5879    2.0425   -1.1387 C   0  0  0  0  0  0
   -1.3279   -2.8882   -0.8153 C   0  0  0  0  0  0
   -0.2045   -3.3411    1.2986 C   0  0  0  0  0  0
   -6.0665    3.5639    0.3872 C   0  0  0  0  0  0
    3.9419   -0.0895    0.1544 C   0  0  0  0  0  0
    3.2540   -0.6322   -0.9511 C   0  0  0  0  0  0
    3.2479    0.1257    1.3642 C   0  0  0  0  0  0
   -7.7033    2.3938   -0.4331 C   0  0  0  0  0  0
   -1.6477   -4.2542   -0.9402 C   0  0  0  0  0  0
   -0.5223   -4.7076    1.1746 C   0  0  0  0  0  0
    5.4105    0.2007    0.0475 C   0  0  0  0  0  0
   -1.2461   -5.1648    0.0567 C   0  0  0  0  0  0
    7.2573    1.8186    0.0133 C   0  0  0  0  0  0
    4.9371    2.6686    0.1076 C   0  0  0  0  0  0
    7.7588    1.8223   -1.4393 C   0  0  0  0  0  0
    4.8272    3.3114    1.4997 C   0  0  0  0  0  0
   -1.4772    1.9776   -1.3412 H   0  0  0  0  0  0
   -1.5891    3.3039   -0.2018 H   0  0  0  0  0  0
   -4.5758    0.3159   -0.0407 H   0  0  0  0  0  0
   -3.3128    0.1417   -1.2413 H   0  0  0  0  0  0
    0.1416    1.6869    0.4895 H   0  0  0  0  0  0
   -1.1120    1.8065    1.6968 H   0  0  0  0  0  0
   -2.9748   -0.0148    1.7966 H   0  0  0  0  0  0
   -2.9406   -1.3649    0.7068 H   0  0  0  0  0  0
   -3.7055    3.8111   -1.0375 H   0  0  0  0  0  0
   -3.9899    2.4219   -2.0664 H   0  0  0  0  0  0
    1.3629   -1.3314   -1.7155 H   0  0  0  0  0  0
    1.3533    0.0035    2.3864 H   0  0  0  0  0  0
   -6.5532    1.3226   -1.9432 H   0  0  0  0  0  0
   -1.6325   -2.1950   -1.5861 H   0  0  0  0  0  0
    0.3551   -2.9995    2.1574 H   0  0  0  0  0  0
   -5.6739    4.2964    1.0773 H   0  0  0  0  0  0
    3.7780   -0.8248   -1.8764 H   0  0  0  0  0  0
    3.7681    0.4983    2.2335 H   0  0  0  0  0  0
   -8.7404    2.0939   -0.4691 H   0  0  0  0  0  0
   -0.2088   -5.4056    1.9368 H   0  0  0  0  0  0
   -1.4868   -6.2140   -0.0329 H   0  0  0  0  0  0
    7.4496    2.7961    0.4562 H   0  0  0  0  0  0
    7.8428    1.1146    0.6075 H   0  0  0  0  0  0
    5.3287    3.4088   -0.5914 H   0  0  0  0  0  0
    3.9419    2.4349   -0.2707 H   0  0  0  0  0  0
    8.8159    2.0850   -1.4813 H   0  0  0  0  0  0
    7.6449    0.8430   -1.9051 H   0  0  0  0  0  0
    7.2137    2.5466   -2.0451 H   0  0  0  0  0  0
    4.1680    4.1790    1.4687 H   0  0  0  0  0  0
    4.4232    2.6216    2.2381 H   0  0  0  0  0  0
    5.7963    3.6525    1.8635 H   0  0  0  0  0  0
   -2.5012   -5.6233   -2.0209 H   0  0  0  0  0  0
   -3.2190    1.9513   -0.1429 N   0  3  2  0  0  0
   -3.4459    2.2356    0.7995 H   0  0  0  0  0  0
  1 20  1  0  0  0
  1 24  1  0  0  0
  2 25  1  0  0  0
  2 64  1  0  0  0
  3 27  2  0  0  0
  4 27  1  0  0  0
  4 29  1  0  0  0
  4 30  1  0  0  0
  5  7  1  0  0  0
  5 33  1  0  0  0
  5 34  1  0  0  0
  5 65  1  0  0  0
  6  8  1  0  0  0
  6 35  1  0  0  0
  6 36  1  0  0  0
  6 65  1  0  0  0
  7  9  1  0  0  0
  7 37  1  0  0  0
  7 38  1  0  0  0
  8  9  1  0  0  0
  8 39  1  0  0  0
  8 40  1  0  0  0
  9 11  2  0  0  0
 10 13  1  0  0  0
 10 41  1  0  0  0
 10 42  1  0  0  0
 10 65  1  0  0  0
 11 12  1  0  0  0
 11 14  1  0  0  0
 12 15  2  0  0  0
 12 16  1  0  0  0
 13 17  1  0  0  0
 13 20  2  0  0  0
 14 18  2  0  0  0
 14 19  1  0  0  0
 15 22  1  0  0  0
 15 43  1  0  0  0
 16 23  2  0  0  0
 16 44  1  0  0  0
 17 24  2  0  0  0
 17 45  1  0  0  0
 18 25  1  0  0  0
 18 46  1  0  0  0
 19 26  2  0  0  0
 19 47  1  0  0  0
 20 48  1  0  0  0
 21 22  2  0  0  0
 21 23  1  0  0  0
 21 27  1  0  0  0
 22 49  1  0  0  0
 23 50  1  0  0  0
 24 51  1  0  0  0
 25 28  2  0  0  0
 26 28  1  0  0  0
 26 52  1  0  0  0
 28 53  1  0  0  0
 29 31  1  0  0  0
 29 54  1  0  0  0
 29 55  1  0  0  0
 30 32  1  0  0  0
 30 56  1  0  0  0
 30 57  1  0  0  0
 31 58  1  0  0  0
 31 59  1  0  0  0
 31 60  1  0  0  0
 32 61  1  0  0  0
 32 62  1  0  0  0
 32 63  1  0  0  0
 65 66  1  0  0  0
M  CHG  1  65   1
M  END
> <LID>
L020872

> <PC_CID>
10160733

> <Names>


> <CAS_Numbers>


$$$$
19367706
                    3D
 Structure written by MMmdl.
 48 50  0  0  1  0            999 V2000
    1.5940   -1.2051    1.8840 O   0  0  0  0  0  0
    5.2228    0.9974   -0.4892 O   0  0  0  0  0  0
   -2.9553    3.2047    2.0887 O   0  0  0  0  0  0
   -0.7155   -1.5598    0.2194 C   0  0  0  0  0  0
   -0.3174   -0.2976   -0.0756 C   0  0  0  0  0  0
    0.2976   -2.6882    0.3503 C   0  0  0  0  0  0
   -2.1693   -1.9753    0.4406 C   0  0  0  0  0  0
    1.1257    0.0207   -0.1569 C   0  0  0  0  0  0
    1.1764   -2.5392    1.6049 C   0  0  0  0  0  0
    2.0359   -0.4693    0.8130 C   0  0  0  0  0  0
   -1.2869    0.8058   -0.1554 C   0  0  0  0  0  0
    1.6201    0.8168   -1.2119 C   0  0  0  0  0  0
    3.4057   -0.1493    0.7306 C   0  0  0  0  0  0
   -1.6656    1.4863    1.0202 C   0  0  0  0  0  0
   -1.8089    1.2044   -1.4035 C   0  0  0  0  0  0
    2.9912    1.1221   -1.2980 C   0  0  0  0  0  0
    3.8992    0.6465   -0.3321 C   0  0  0  0  0  0
   -3.9179   -3.5572   -0.2508 C   0  0  0  0  0  0
   -2.7614   -2.2258   -1.9528 C   0  0  0  0  0  0
   -2.5835    2.5525    0.9496 C   0  0  0  0  0  0
   -2.7261    2.2709   -1.4715 C   0  0  0  0  0  0
   -3.1150    2.9433   -0.2961 C   0  0  0  0  0  0
    6.1571    0.5292    0.4725 C   0  0  0  0  0  0
   -0.1952   -3.6606    0.3565 H   0  0  0  0  0  0
    0.9271   -2.6879   -0.5409 H   0  0  0  0  0  0
   -2.2162   -2.4856    1.4038 H   0  0  0  0  0  0
   -2.8422   -1.1218    0.5215 H   0  0  0  0  0  0
    0.6190   -2.8862    2.4753 H   0  0  0  0  0  0
    2.0537   -3.1823    1.5257 H   0  0  0  0  0  0
    0.9507    1.1977   -1.9685 H   0  0  0  0  0  0
    4.0604   -0.5284    1.5004 H   0  0  0  0  0  0
   -1.2553    1.1895    1.9748 H   0  0  0  0  0  0
   -1.5103    0.6950   -2.3080 H   0  0  0  0  0  0
    3.3504    1.7315   -2.1143 H   0  0  0  0  0  0
   -4.2202   -4.2703   -1.0185 H   0  0  0  0  0  0
   -3.7974   -4.1093    0.6820 H   0  0  0  0  0  0
   -4.7243   -2.8344   -0.1188 H   0  0  0  0  0  0
   -3.1010   -2.9350   -2.7084 H   0  0  0  0  0  0
   -3.4687   -1.3958   -1.9233 H   0  0  0  0  0  0
   -1.7956   -1.8415   -2.2810 H   0  0  0  0  0  0
   -3.1300    2.5754   -2.4258 H   0  0  0  0  0  0
   -3.8185    3.7609   -0.3560 H   0  0  0  0  0  0
   -3.5647    3.9100    1.9335 H   0  0  0  0  0  0
    7.1530    0.8856    0.2096 H   0  0  0  0  0  0
    5.9253    0.9055    1.4698 H   0  0  0  0  0  0
    6.1929   -0.5608    0.4963 H   0  0  0  0  0  0
   -2.6570   -2.8820   -0.6289 N   0  3  0  0  0  0
   -1.9649   -3.6120   -0.7225 H   0  0  0  0  0  0
  1  9  1  0  0  0
  1 10  1  0  0  0
  2 17  1  0  0  0
  2 23  1  0  0  0
  3 20  1  0  0  0
  3 43  1  0  0  0
  4  5  2  0  0  0
  4  6  1  0  0  0
  4  7  1  0  0  0
  5  8  1  0  0  0
  5 11  1  0  0  0
  6  9  1  0  0  0
  6 24  1  0  0  0
  6 25  1  0  0  0
  7 26  1  0  0  0
  7 27  1  0  0  0
  7 47  1  0  0  0
  8 10  2  0  0  0
  8 12  1  0  0  0
  9 28  1  0  0  0
  9 29  1  0  0  0
 10 13  1  0  0  0
 11 14  2  0  0  0
 11 15  1  0  0  0
 12 16  2  0  0  0
 12 30  1  0  0  0
 13 17  2  0  0  0
 13 31  1  0  0  0
 14 20  1  0  0  0
 14 32  1  0  0  0
 15 21  2  0  0  0
 15 33  1  0  0  0
 16 17  1  0  0  0
 16 34  1  0  0  0
 18 35  1  0  0  0
 18 36  1  0  0  0
 18 37  1  0  0  0
 18 47  1  0  0  0
 19 38  1  0  0  0
 19 39  1  0  0  0
 19 40  1  0  0  0
 19 47  1  0  0  0
 20 22  2  0  0  0
 21 22  1  0  0  0
 21 41  1  0  0  0
 22 42  1  0  0  0
 23 44  1  0  0  0
 23 45  1  0  0  0
 23 46  1  0  0  0
 47 48  1  0  0  0
M  CHG  1  47   1
M  END
> <LID>
L018921

> <PC_CID>
19367706

> <Names>


> <CAS_Numbers>


$$$$
19367704
                    3D
 Structure written by MMmdl.
 45 47  0  0  1  0            999 V2000
   -1.9550    1.2264   -2.1146 S   0  0  0  0  0  0
   -5.3471   -1.3270    0.7734 O   0  0  0  0  0  0
    2.6453   -2.9817   -2.4024 O   0  0  0  0  0  0
    0.3996    1.6009   -0.1080 C   0  0  0  0  0  0
    0.0581    0.3076    0.1242 C   0  0  0  0  0  0
   -0.6436    2.7118   -0.1372 C   0  0  0  0  0  0
    1.8260    2.0706   -0.3972 C   0  0  0  0  0  0
   -1.3613   -0.0954    0.2665 C   0  0  0  0  0  0
   -1.3367    2.8235   -1.5027 C   0  0  0  0  0  0
   -2.3569    0.2714   -0.6795 C   0  0  0  0  0  0
    1.0700   -0.7592    0.0781 C   0  0  0  0  0  0
   -1.7418   -0.8816    1.3774 C   0  0  0  0  0  0
   -3.6919   -0.1463   -0.5085 C   0  0  0  0  0  0
    1.3818   -1.3674   -1.1553 C   0  0  0  0  0  0
    1.6975   -1.1980    1.2624 C   0  0  0  0  0  0
    2.5666    2.2061    1.9644 C   0  0  0  0  0  0
    3.5809    3.6564    0.2690 C   0  0  0  0  0  0
   -3.0772   -1.2922    1.5492 C   0  0  0  0  0  0
   -4.0540   -0.9253    0.6061 C   0  0  0  0  0  0
    2.3386   -2.3999   -1.2072 C   0  0  0  0  0  0
    2.6536   -2.2306    1.2080 C   0  0  0  0  0  0
    2.9758   -2.8299   -0.0257 C   0  0  0  0  0  0
   -0.1895    3.6674    0.1245 H   0  0  0  0  0  0
   -1.3890    2.5341    0.6389 H   0  0  0  0  0  0
    2.5152    1.2446   -0.5712 H   0  0  0  0  0  0
    1.7974    2.6352   -1.3302 H   0  0  0  0  0  0
   -0.6517    3.2312   -2.2465 H   0  0  0  0  0  0
   -2.1744    3.5176   -1.4320 H   0  0  0  0  0  0
   -1.0080   -1.1739    2.1136 H   0  0  0  0  0  0
   -4.4386    0.1330   -1.2377 H   0  0  0  0  0  0
    0.8903   -1.0406   -2.0606 H   0  0  0  0  0  0
    1.4506   -0.7454    2.2116 H   0  0  0  0  0  0
    2.9376    2.8822    2.7353 H   0  0  0  0  0  0
    1.6327    1.7794    2.3307 H   0  0  0  0  0  0
    3.2895    1.3980    1.8445 H   0  0  0  0  0  0
    3.9166    4.3344    1.0545 H   0  0  0  0  0  0
    4.3928    2.9626    0.0461 H   0  0  0  0  0  0
    3.3880    4.2550   -0.6220 H   0  0  0  0  0  0
   -3.3498   -1.8912    2.4059 H   0  0  0  0  0  0
    3.1384   -2.5655    2.1132 H   0  0  0  0  0  0
    3.7095   -3.6220   -0.0597 H   0  0  0  0  0  0
   -5.9227   -1.0334    0.0839 H   0  0  0  0  0  0
    3.2888   -3.6697   -2.3289 H   0  0  0  0  0  0
    2.3623    2.9298    0.6883 N   0  3  0  0  0  0
    1.6621    3.6358    0.8663 H   0  0  0  0  0  0
  1  9  1  0  0  0
  1 10  1  0  0  0
  2 19  1  0  0  0
  2 42  1  0  0  0
  3 20  1  0  0  0
  3 43  1  0  0  0
  4  5  2  0  0  0
  4  6  1  0  0  0
  4  7  1  0  0  0
  5  8  1  0  0  0
  5 11  1  0  0  0
  6  9  1  0  0  0
  6 23  1  0  0  0
  6 24  1  0  0  0
  7 25  1  0  0  0
  7 26  1  0  0  0
  7 44  1  0  0  0
  8 10  2  0  0  0
  8 12  1  0  0  0
  9 27  1  0  0  0
  9 28  1  0  0  0
 10 13  1  0  0  0
 11 14  2  0  0  0
 11 15  1  0  0  0
 12 18  2  0  0  0
 12 29  1  0  0  0
 13 19  2  0  0  0
 13 30  1  0  0  0
 14 20  1  0  0  0
 14 31  1  0  0  0
 15 21  2  0  0  0
 15 32  1  0  0  0
 16 33  1  0  0  0
 16 34  1  0  0  0
 16 35  1  0  0  0
 16 44  1  0  0  0
 17 36  1  0  0  0
 17 37  1  0  0  0
 17 38  1  0  0  0
 17 44  1  0  0  0
 18 19  1  0  0  0
 18 39  1  0  0  0
 20 22  2  0  0  0
 21 22  1  0  0  0
 21 40  1  0  0  0
 22 41  1  0  0  0
 44 45  1  0  0  0
M  CHG  1  44   1
M  END
> <LID>
L018923

> <PC_CID>
19367704

> <Names>


> <CAS_Numbers>


$$$$
22729934
                    3D
 Structure written by MMmdl.
 62 66  0  0  1  0            999 V2000
    4.6262   -3.9268   -1.2462 S   0  0  0  0  0  0
    0.3946    5.3436    2.1681 O   0  0  0  0  0  0
   -0.0772    1.1259   -0.4236 C   0  0  0  0  0  0
   -0.8329    1.1260   -1.7877 C   0  0  0  0  0  0
   -1.1875    0.7982    0.6215 C   0  0  0  0  0  0
   -1.6202   -0.1720   -2.0743 C   0  0  0  0  0  0
   -1.9143   -0.5267    0.3336 C   0  0  0  0  0  0
    1.0673    0.0891   -0.3409 C   0  0  0  0  0  0
    0.5463    2.5195   -0.2085 C   0  0  0  0  0  0
   -3.3934   -1.6874   -1.2892 C   0  0  0  0  0  0
    1.6468   -0.2166    0.9125 C   0  0  0  0  0  0
    1.6132   -0.5367   -1.4877 C   0  0  0  0  0  0
    0.2075    3.3494    0.8898 C   0  0  0  0  0  0
    1.5093    2.9929   -1.1297 C   0  0  0  0  0  0
   -4.6168   -1.7952   -0.3961 C   0  0  0  0  0  0
    2.7006   -1.1433    1.0215 C   0  0  0  0  0  0
    2.6663   -1.4646   -1.3767 C   0  0  0  0  0  0
    0.7974    4.6178    1.0675 C   0  0  0  0  0  0
    2.1062    4.2554   -0.9659 C   0  0  0  0  0  0
    3.2214   -1.7901   -0.1194 C   0  0  0  0  0  0
    1.7534    5.0683    0.1255 C   0  0  0  0  0  0
   -4.6304   -2.6971    0.6896 C   0  0  0  0  0  0
   -5.7494   -0.9931   -0.6512 C   0  0  0  0  0  0
    4.3212   -2.7489    0.0128 C   0  0  0  0  0  0
   -5.7663   -2.7911    1.5170 C   0  0  0  0  0  0
   -6.8849   -1.0882    0.1767 C   0  0  0  0  0  0
   -6.8933   -1.9865    1.2611 C   0  0  0  0  0  0
    5.2130   -2.8969    1.0473 C   0  0  0  0  0  0
    0.9741    6.6237    2.3744 C   0  0  0  0  0  0
    6.1503   -3.9507    0.8363 C   0  0  0  0  0  0
    5.9632   -4.5992   -0.3551 C   0  0  0  0  0  0
   -1.5446    1.9535   -1.7910 H   0  0  0  0  0  0
   -0.1630    1.3362   -2.6208 H   0  0  0  0  0  0
   -0.7978    0.7753    1.6383 H   0  0  0  0  0  0
   -1.9402    1.5886    0.6166 H   0  0  0  0  0  0
   -0.9500   -1.0210   -2.2073 H   0  0  0  0  0  0
   -2.1612   -0.0572   -3.0144 H   0  0  0  0  0  0
   -1.2201   -1.3676    0.3725 H   0  0  0  0  0  0
   -2.6527   -0.6936    1.1177 H   0  0  0  0  0  0
   -3.7405   -1.6518   -2.3230 H   0  0  0  0  0  0
   -2.7765   -2.5833   -1.2008 H   0  0  0  0  0  0
    1.2988    0.2663    1.8126 H   0  0  0  0  0  0
    1.2479   -0.3179   -2.4781 H   0  0  0  0  0  0
   -0.5119    3.0361    1.6297 H   0  0  0  0  0  0
    1.8037    2.3848   -1.9722 H   0  0  0  0  0  0
    3.1067   -1.3532    1.9998 H   0  0  0  0  0  0
    3.0497   -1.9139   -2.2804 H   0  0  0  0  0  0
    2.8397    4.6008   -1.6795 H   0  0  0  0  0  0
    2.2325    6.0309    0.2193 H   0  0  0  0  0  0
   -3.7700   -3.3178    0.8939 H   0  0  0  0  0  0
   -5.7519   -0.3021   -1.4817 H   0  0  0  0  0  0
   -5.7735   -3.4811    2.3481 H   0  0  0  0  0  0
   -7.7503   -0.4726   -0.0204 H   0  0  0  0  0  0
   -7.7645   -2.0594    1.8956 H   0  0  0  0  0  0
    5.2330   -2.2915    1.9413 H   0  0  0  0  0  0
    0.5563    7.0660    3.2787 H   0  0  0  0  0  0
    2.0543    6.5554    2.5101 H   0  0  0  0  0  0
    0.7553    7.2989    1.5461 H   0  0  0  0  0  0
    6.9182   -4.1926    1.5564 H   0  0  0  0  0  0
    6.5253   -5.4269   -0.7618 H   0  0  0  0  0  0
   -2.5839   -0.4796   -0.9904 N   0  3  0  0  0  0
   -3.2329    0.2939   -0.9588 H   0  0  0  0  0  0
  1 24  1  0  0  0
  1 31  1  0  0  0
  2 18  1  0  0  0
  2 29  1  0  0  0
  3  4  1  0  0  0
  3  5  1  0  0  0
  3  8  1  0  0  0
  3  9  1  0  0  0
  4  6  1  0  0  0
  4 32  1  0  0  0
  4 33  1  0  0  0
  5  7  1  0  0  0
  5 34  1  0  0  0
  5 35  1  0  0  0
  6 36  1  0  0  0
  6 37  1  0  0  0
  6 61  1  0  0  0
  7 38  1  0  0  0
  7 39  1  0  0  0
  7 61  1  0  0  0
  8 11  2  0  0  0
  8 12  1  0  0  0
  9 13  2  0  0  0
  9 14  1  0  0  0
 10 15  1  0  0  0
 10 40  1  0  0  0
 10 41  1  0  0  0
 10 61  1  0  0  0
 11 16  1  0  0  0
 11 42  1  0  0  0
 12 17  2  0  0  0
 12 43  1  0  0  0
 13 18  1  0  0  0
 13 44  1  0  0  0
 14 19  2  0  0  0
 14 45  1  0  0  0
 15 22  2  0  0  0
 15 23  1  0  0  0
 16 20  2  0  0  0
 16 46  1  0  0  0
 17 20  1  0  0  0
 17 47  1  0  0  0
 18 21  2  0  0  0
 19 21  1  0  0  0
 19 48  1  0  0  0
 20 24  1  0  0  0
 21 49  1  0  0  0
 22 25  1  0  0  0
 22 50  1  0  0  0
 23 26  2  0  0  0
 23 51  1  0  0  0
 24 28  2  0  0  0
 25 27  2  0  0  0
 25 52  1  0  0  0
 26 27  1  0  0  0
 26 53  1  0  0  0
 27 54  1  0  0  0
 28 30  1  0  0  0
 28 55  1  0  0  0
 29 56  1  0  0  0
 29 57  1  0  0  0
 29 58  1  0  0  0
 30 31  2  0  0  0
 30 59  1  0  0  0
 31 60  1  0  0  0
 61 62  1  0  0  0
M  CHG  1  61   1
M  END
> <LID>
L019573

> <PC_CID>
22729934

> <Names>


> <CAS_Numbers>


$$$$
10370974
                    3D
 Structure written by MMmdl.
 86 90  0  0  1  0            999 V2000
    1.7298    1.4601   -0.9556 O   0  0  0  0  0  0
    8.5517    3.6936    1.8426 O   0  0  0  0  0  0
    7.0572    5.2604    2.5980 O   0  0  0  0  0  0
    2.6410   -1.9663   -1.1825 N   0  0  0  0  0  0
    3.5935    0.1561   -1.0497 N   0  0  0  0  0  0
   -6.0483    0.0106   -2.6776 N   0  0  0  0  0  0
    1.5427   -0.9784   -1.1163 C   0  0  0  0  0  0
    0.6617   -0.9958   -2.4002 C   0  0  0  0  0  0
    0.6695   -1.1602    0.1603 C   0  0  0  0  0  0
   -0.6231   -0.1517   -2.2851 C   0  0  0  0  0  0
   -0.6158   -0.3091    0.1632 C   0  0  0  0  0  0
    2.2811    0.3621   -1.0326 C   0  0  0  0  0  0
    3.9221   -1.2498   -1.1412 C   0  0  0  0  0  0
   -2.7305    0.1586   -1.0449 C   0  0  0  0  0  0
    2.5826   -3.3329   -1.2690 C   0  0  0  0  0  0
    4.6389    1.1714   -0.9620 C   0  0  0  0  0  0
   -3.7644   -0.6059   -0.1866 C   0  0  0  0  0  0
    4.9005    1.5826    0.4960 C   0  0  0  0  0  0
   -5.1907    0.0137   -0.1851 C   0  0  0  0  0  0
    3.7801   -4.0965   -1.3202 C   0  0  0  0  0  0
    1.3585   -4.0512   -1.3119 C   0  0  0  0  0  0
    6.0055    2.6402    0.6179 C   0  0  0  0  0  0
   -6.2081   -0.8011    0.6330 C   0  0  0  0  0  0
   -5.1147    1.4401    0.3844 C   0  0  0  0  0  0
    3.7564   -5.5016   -1.4093 C   0  0  0  0  0  0
    1.3315   -5.4564   -1.4010 C   0  0  0  0  0  0
    6.2606    3.0467    2.0782 C   0  0  0  0  0  0
    2.5307   -6.1854   -1.4499 C   0  0  0  0  0  0
   -5.6733    0.0137   -1.5822 C   0  0  0  0  0  0
   -7.5611   -0.3864    0.6408 C   0  0  0  0  0  0
   -5.2992    2.5839   -0.4306 C   0  0  0  0  0  0
   -5.8496   -1.9478    1.3853 C   0  0  0  0  0  0
   -4.8343    1.6259    1.7587 C   0  0  0  0  0  0
    7.3322    4.1279    2.2010 C   0  0  0  0  0  0
   -8.5311   -1.0938    1.3758 C   0  0  0  0  0  0
   -5.2109    3.8773    0.1196 C   0  0  0  0  0  0
   -6.8203   -2.6557    2.1206 C   0  0  0  0  0  0
   -4.7464    2.9189    2.3085 C   0  0  0  0  0  0
   -8.1611   -2.2304    2.1168 C   0  0  0  0  0  0
   -4.9353    4.0462    1.4888 C   0  0  0  0  0  0
    9.6560    4.5810    1.8998 C   0  0  0  0  0  0
   10.9161    3.8517    1.4273 C   0  0  0  0  0  0
    0.3696   -2.0045   -2.6771 H   0  0  0  0  0  0
    1.2425   -0.6410   -3.2534 H   0  0  0  0  0  0
    1.2562   -0.9171    1.0480 H   0  0  0  0  0  0
    0.3787   -2.1961    0.3081 H   0  0  0  0  0  0
   -0.3978    0.9148   -2.2688 H   0  0  0  0  0  0
   -1.2254   -0.3203   -3.1788 H   0  0  0  0  0  0
   -1.2034   -0.5845    1.0378 H   0  0  0  0  0  0
   -0.3865    0.7503    0.2796 H   0  0  0  0  0  0
    4.5022   -1.4342   -2.0469 H   0  0  0  0  0  0
    4.5101   -1.5473   -0.2714 H   0  0  0  0  0  0
   -2.6043    1.1842   -0.6951 H   0  0  0  0  0  0
   -3.1144    0.2302   -2.0628 H   0  0  0  0  0  0
    5.5544    0.7819   -1.4093 H   0  0  0  0  0  0
    4.3539    2.0419   -1.5551 H   0  0  0  0  0  0
   -3.8212   -1.6294   -0.5606 H   0  0  0  0  0  0
   -3.4014   -0.6710    0.8383 H   0  0  0  0  0  0
    3.9814    1.9701    0.9379 H   0  0  0  0  0  0
    5.1759    0.7025    1.0787 H   0  0  0  0  0  0
    4.7516   -3.6278   -1.2926 H   0  0  0  0  0  0
    0.4028   -3.5587   -1.2785 H   0  0  0  0  0  0
    6.9244    2.2526    0.1755 H   0  0  0  0  0  0
    5.7290    3.5206    0.0358 H   0  0  0  0  0  0
    4.6832   -6.0549   -1.4464 H   0  0  0  0  0  0
    0.3851   -5.9760   -1.4320 H   0  0  0  0  0  0
    5.3387    3.4160    2.5286 H   0  0  0  0  0  0
    6.5714    2.1792    2.6609 H   0  0  0  0  0  0
    2.5105   -7.2632   -1.5183 H   0  0  0  0  0  0
   -7.8616    0.4863    0.0792 H   0  0  0  0  0  0
   -5.5069    2.4943   -1.4860 H   0  0  0  0  0  0
   -4.8341   -2.3096    1.4193 H   0  0  0  0  0  0
   -4.6858    0.7710    2.4021 H   0  0  0  0  0  0
   -9.5594   -0.7633    1.3712 H   0  0  0  0  0  0
   -5.3543    4.7422   -0.5113 H   0  0  0  0  0  0
   -6.5346   -3.5280    2.6901 H   0  0  0  0  0  0
   -4.5341    3.0454    3.3600 H   0  0  0  0  0  0
   -8.9039   -2.7744    2.6815 H   0  0  0  0  0  0
   -4.8683    5.0389    1.9093 H   0  0  0  0  0  0
    9.4670    5.4496    1.2675 H   0  0  0  0  0  0
    9.7909    4.9393    2.9213 H   0  0  0  0  0  0
   11.7820    4.5128    1.4612 H   0  0  0  0  0  0
   11.1295    2.9885    2.0581 H   0  0  0  0  0  0
   10.8040    3.4998    0.4015 H   0  0  0  0  0  0
   -1.4076   -0.5171   -1.0779 N   0  3  0  0  0  0
   -1.5933   -1.5072   -1.1523 H   0  0  0  0  0  0
  1 12  2  0  0  0
  2 34  1  0  0  0
  2 41  1  0  0  0
  3 34  2  0  0  0
  4  7  1  0  0  0
  4 13  1  0  0  0
  4 15  1  0  0  0
  5 12  1  0  0  0
  5 13  1  0  0  0
  5 16  1  0  0  0
  6 29  3  0  0  0
  7  8  1  0  0  0
  7  9  1  0  0  0
  7 12  1  0  0  0
  8 10  1  0  0  0
  8 43  1  0  0  0
  8 44  1  0  0  0
  9 11  1  0  0  0
  9 45  1  0  0  0
  9 46  1  0  0  0
 10 47  1  0  0  0
 10 48  1  0  0  0
 10 85  1  0  0  0
 11 49  1  0  0  0
 11 50  1  0  0  0
 11 85  1  0  0  0
 13 51  1  0  0  0
 13 52  1  0  0  0
 14 17  1  0  0  0
 14 53  1  0  0  0
 14 54  1  0  0  0
 14 85  1  0  0  0
 15 20  2  0  0  0
 15 21  1  0  0  0
 16 18  1  0  0  0
 16 55  1  0  0  0
 16 56  1  0  0  0
 17 19  1  0  0  0
 17 57  1  0  0  0
 17 58  1  0  0  0
 18 22  1  0  0  0
 18 59  1  0  0  0
 18 60  1  0  0  0
 19 23  1  0  0  0
 19 24  1  0  0  0
 19 29  1  0  0  0
 20 25  1  0  0  0
 20 61  1  0  0  0
 21 26  2  0  0  0
 21 62  1  0  0  0
 22 27  1  0  0  0
 22 63  1  0  0  0
 22 64  1  0  0  0
 23 30  2  0  0  0
 23 32  1  0  0  0
 24 31  2  0  0  0
 24 33  1  0  0  0
 25 28  2  0  0  0
 25 65  1  0  0  0
 26 28  1  0  0  0
 26 66  1  0  0  0
 27 34  1  0  0  0
 27 67  1  0  0  0
 27 68  1  0  0  0
 28 69  1  0  0  0
 30 35  1  0  0  0
 30 70  1  0  0  0
 31 36  1  0  0  0
 31 71  1  0  0  0
 32 37  2  0  0  0
 32 72  1  0  0  0
 33 38  2  0  0  0
 33 73  1  0  0  0
 35 39  2  0  0  0
 35 74  1  0  0  0
 36 40  2  0  0  0
 36 75  1  0  0  0
 37 39  1  0  0  0
 37 76  1  0  0  0
 38 40  1  0  0  0
 38 77  1  0  0  0
 39 78  1  0  0  0
 40 79  1  0  0  0
 41 42  1  0  0  0
 41 80  1  0  0  0
 41 81  1  0  0  0
 42 82  1  0  0  0
 42 83  1  0  0  0
 42 84  1  0  0  0
 85 86  1  0  0  0
M  CHG  1  85   1
M  END
> <LID>
L022594

> <PC_CID>
10370974

> <Names>


> <CAS_Numbers>


$$$$
10179323
                    3D
 Structure written by MMmdl.
 59 62  0  0  1  0            999 V2000
    5.3127   -0.2673   -0.1679 O   0  0  0  0  0  0
    4.6856   -0.6588   -2.3203 O   0  0  0  0  0  0
    3.1149   -0.6671   -0.5789 N   0  0  0  0  0  0
   -1.5691   -1.3574    0.0022 N   0  0  0  0  0  0
   -0.0348   -1.7272    1.5761 N   0  0  0  0  0  0
    0.3724    0.3129    0.1541 C   0  0  0  0  0  0
    1.6417    0.5338    1.0373 C   0  0  0  0  0  0
    0.9119    0.1471   -1.2984 C   0  0  0  0  0  0
    2.7850   -0.4909    0.8443 C   0  0  0  0  0  0
    1.9613   -0.9678   -1.4306 C   0  0  0  0  0  0
   -0.4146   -0.9277    0.5784 C   0  0  0  0  0  0
   -0.5196    1.5580    0.3452 C   0  0  0  0  0  0
   -0.7657    2.4931   -0.6921 C   0  0  0  0  0  0
   -1.1133    1.7899    1.6099 C   0  0  0  0  0  0
    4.3999   -0.5385   -1.1275 C   0  0  0  0  0  0
   -2.3246   -0.8083   -1.1200 C   0  0  0  0  0  0
   -1.9185   -2.5299    0.6660 C   0  0  0  0  0  0
   -0.9778   -2.7403    1.6386 C   0  0  0  0  0  0
   -1.5868    3.6156   -0.4696 C   0  0  0  0  0  0
   -1.9308    2.9138    1.8338 C   0  0  0  0  0  0
   -3.8119   -0.7257   -0.8220 C   0  0  0  0  0  0
   -2.1699    3.8277    0.7924 C   0  0  0  0  0  0
    6.6863   -0.0775   -0.4876 C   0  0  0  0  0  0
   -4.7007   -1.6829   -1.3561 C   0  0  0  0  0  0
   -4.3124    0.3146   -0.0113 C   0  0  0  0  0  0
    7.2628    0.9369    0.5072 C   0  0  0  0  0  0
    7.4211   -1.4253   -0.4294 C   0  0  0  0  0  0
   -6.0789   -1.6023   -1.0764 C   0  0  0  0  0  0
   -5.6903    0.3953    0.2679 C   0  0  0  0  0  0
   -6.5739   -0.5636   -0.2642 C   0  0  0  0  0  0
    2.0551    1.5161    0.8023 H   0  0  0  0  0  0
    1.3770    0.5789    2.0942 H   0  0  0  0  0  0
    0.1124   -0.0311   -2.0140 H   0  0  0  0  0  0
    1.3993    1.0687   -1.6191 H   0  0  0  0  0  0
    3.6253   -0.1676    1.4576 H   0  0  0  0  0  0
    2.5086   -1.4663    1.2417 H   0  0  0  0  0  0
    2.2384   -1.0734   -2.4802 H   0  0  0  0  0  0
    1.5417   -1.9302   -1.1352 H   0  0  0  0  0  0
   -0.3462    2.3698   -1.6778 H   0  0  0  0  0  0
   -0.9457    1.0983    2.4228 H   0  0  0  0  0  0
   -1.9812    0.1889   -1.3748 H   0  0  0  0  0  0
   -2.1471   -1.4363   -1.9936 H   0  0  0  0  0  0
   -2.7942   -3.1039    0.4012 H   0  0  0  0  0  0
   -0.9021   -3.5368    2.3640 H   0  0  0  0  0  0
   -1.7695    4.3161   -1.2711 H   0  0  0  0  0  0
   -2.3765    3.0723    2.8048 H   0  0  0  0  0  0
   -2.7989    4.6894    0.9612 H   0  0  0  0  0  0
    6.7864    0.3430   -1.4894 H   0  0  0  0  0  0
   -4.3283   -2.4833   -1.9786 H   0  0  0  0  0  0
   -3.6401    1.0529    0.3986 H   0  0  0  0  0  0
    8.3157    1.1315    0.3024 H   0  0  0  0  0  0
    6.7326    1.8877    0.4456 H   0  0  0  0  0  0
    7.1823    0.5760    1.5331 H   0  0  0  0  0  0
    8.4805   -1.3028   -0.6555 H   0  0  0  0  0  0
    7.3401   -1.8777    0.5595 H   0  0  0  0  0  0
    7.0101   -2.1298   -1.1529 H   0  0  0  0  0  0
   -6.7564   -2.3375   -1.4850 H   0  0  0  0  0  0
   -6.0689    1.1928    0.8900 H   0  0  0  0  0  0
   -7.6307   -0.5021   -0.0500 H   0  0  0  0  0  0
  1 15  1  0  0  0
  1 23  1  0  0  0
  2 15  2  0  0  0
  3  9  1  0  0  0
  3 10  1  0  0  0
  3 15  1  0  0  0
  4 11  1  0  0  0
  4 16  1  0  0  0
  4 17  1  0  0  0
  5 11  2  0  0  0
  5 18  1  0  0  0
  6  7  1  0  0  0
  6  8  1  0  0  0
  6 11  1  0  0  0
  6 12  1  0  0  0
  7  9  1  0  0  0
  7 31  1  0  0  0
  7 32  1  0  0  0
  8 10  1  0  0  0
  8 33  1  0  0  0
  8 34  1  0  0  0
  9 35  1  0  0  0
  9 36  1  0  0  0
 10 37  1  0  0  0
 10 38  1  0  0  0
 12 13  2  0  0  0
 12 14  1  0  0  0
 13 19  1  0  0  0
 13 39  1  0  0  0
 14 20  2  0  0  0
 14 40  1  0  0  0
 16 21  1  0  0  0
 16 41  1  0  0  0
 16 42  1  0  0  0
 17 18  2  0  0  0
 17 43  1  0  0  0
 18 44  1  0  0  0
 19 22  2  0  0  0
 19 45  1  0  0  0
 20 22  1  0  0  0
 20 46  1  0  0  0
 21 24  2  0  0  0
 21 25  1  0  0  0
 22 47  1  0  0  0
 23 26  1  0  0  0
 23 27  1  0  0  0
 23 48  1  0  0  0
 24 28  1  0  0  0
 24 49  1  0  0  0
 25 29  2  0  0  0
 25 50  1  0  0  0
 26 51  1  0  0  0
 26 52  1  0  0  0
 26 53  1  0  0  0
 27 54  1  0  0  0
 27 55  1  0  0  0
 27 56  1  0  0  0
 28 30  2  0  0  0
 28 57  1  0  0  0
 29 30  1  0  0  0
 29 58  1  0  0  0
 30 59  1  0  0  0
M  END
> <LID>
L022158

> <PC_CID>
10179323

> <Names>


> <CAS_Numbers>


$$$$
10179322
                    3D
 Structure written by MMmdl.
 59 62  0  0  1  0            999 V2000
    5.2649    0.3847   -0.1171 O   0  0  0  0  0  0
    4.6483    1.2607   -2.1185 O   0  0  0  0  0  0
    3.0690    0.8632   -0.4294 N   0  0  0  0  0  0
   -1.6167    1.4019    0.2789 N   0  0  0  0  0  0
   -0.0877    1.3992    1.9007 N   0  0  0  0  0  0
    0.3248   -0.2594    0.0489 C   0  0  0  0  0  0
    1.5912   -0.6781    0.8616 C   0  0  0  0  0  0
    0.8691    0.2357   -1.3247 C   0  0  0  0  0  0
    2.7347    0.3631    0.9136 C   0  0  0  0  0  0
    1.9181    1.3511   -1.1934 C   0  0  0  0  0  0
   -0.4640    0.8507    0.7445 C   0  0  0  0  0  0
   -0.5675   -1.5147   -0.0545 C   0  0  0  0  0  0
   -1.1655   -2.0309    1.1210 C   0  0  0  0  0  0
   -0.8097   -2.1860   -1.2798 C   0  0  0  0  0  0
    4.3566    0.8682   -0.9870 C   0  0  0  0  0  0
   -2.3683    1.1260   -0.9419 C   0  0  0  0  0  0
   -1.9685    2.3906    1.1934 C   0  0  0  0  0  0
   -1.0311    2.3713    2.1913 C   0  0  0  0  0  0
   -1.9835   -3.1757    1.0775 C   0  0  0  0  0  0
   -1.6312   -3.3292   -1.3243 C   0  0  0  0  0  0
   -3.8567    0.9778   -0.6758 C   0  0  0  0  0  0
   -2.2187   -3.8255   -0.1469 C   0  0  0  0  0  0
    6.6314    0.3055   -0.4881 C   0  0  0  0  0  0
   -4.3596   -0.2211   -0.1283 C   0  0  0  0  0  0
   -4.7439    2.0329   -0.9775 C   0  0  0  0  0  0
    7.4379   -0.2807    0.6759 C   0  0  0  0  0  0
   -5.7384   -0.3631    0.1204 C   0  0  0  0  0  0
   -6.1229    1.8908   -0.7282 C   0  0  0  0  0  0
   -6.6204    0.6931   -0.1790 C   0  0  0  0  0  0
    8.9302   -0.3983    0.3500 C   0  0  0  0  0  0
    1.3230   -0.9653    1.8789 H   0  0  0  0  0  0
    2.0058   -1.5801    0.4082 H   0  0  0  0  0  0
    1.3582   -0.5876   -1.8469 H   0  0  0  0  0  0
    0.0719    0.5737   -1.9829 H   0  0  0  0  0  0
    3.5735   -0.0934    1.4378 H   0  0  0  0  0  0
    2.4570    1.2204    1.5248 H   0  0  0  0  0  0
    2.1989    1.6947   -2.1898 H   0  0  0  0  0  0
    1.4966    2.2201   -0.6867 H   0  0  0  0  0  0
   -1.0009   -1.5448    2.0716 H   0  0  0  0  0  0
   -0.3868   -1.8396   -2.2094 H   0  0  0  0  0  0
   -2.1882    1.9381   -1.6472 H   0  0  0  0  0  0
   -2.0238    0.2141   -1.4181 H   0  0  0  0  0  0
   -2.8435    3.0106    1.0648 H   0  0  0  0  0  0
   -0.9580    2.9795    3.0808 H   0  0  0  0  0  0
   -2.4325   -3.5530    1.9845 H   0  0  0  0  0  0
   -1.8110   -3.8265   -2.2661 H   0  0  0  0  0  0
   -2.8481   -4.7026   -0.1830 H   0  0  0  0  0  0
    6.7377   -0.3227   -1.3737 H   0  0  0  0  0  0
    7.0033    1.2994   -0.7412 H   0  0  0  0  0  0
   -3.6885   -1.0344    0.1024 H   0  0  0  0  0  0
   -4.3696    2.9551   -1.3975 H   0  0  0  0  0  0
    7.3094    0.3444    1.5602 H   0  0  0  0  0  0
    7.0454   -1.2653    0.9325 H   0  0  0  0  0  0
   -6.1188   -1.2825    0.5407 H   0  0  0  0  0  0
   -6.7993    2.7008   -0.9584 H   0  0  0  0  0  0
   -7.6779    0.5845    0.0119 H   0  0  0  0  0  0
    9.4803   -0.8172    1.1928 H   0  0  0  0  0  0
    9.0950   -1.0472   -0.5107 H   0  0  0  0  0  0
    9.3613    0.5770    0.1227 H   0  0  0  0  0  0
  1 15  1  0  0  0
  1 23  1  0  0  0
  2 15  2  0  0  0
  3  9  1  0  0  0
  3 10  1  0  0  0
  3 15  1  0  0  0
  4 11  1  0  0  0
  4 16  1  0  0  0
  4 17  1  0  0  0
  5 11  2  0  0  0
  5 18  1  0  0  0
  6  7  1  0  0  0
  6  8  1  0  0  0
  6 11  1  0  0  0
  6 12  1  0  0  0
  7  9  1  0  0  0
  7 31  1  0  0  0
  7 32  1  0  0  0
  8 10  1  0  0  0
  8 33  1  0  0  0
  8 34  1  0  0  0
  9 35  1  0  0  0
  9 36  1  0  0  0
 10 37  1  0  0  0
 10 38  1  0  0  0
 12 13  2  0  0  0
 12 14  1  0  0  0
 13 19  1  0  0  0
 13 39  1  0  0  0
 14 20  2  0  0  0
 14 40  1  0  0  0
 16 21  1  0  0  0
 16 41  1  0  0  0
 16 42  1  0  0  0
 17 18  2  0  0  0
 17 43  1  0  0  0
 18 44  1  0  0  0
 19 22  2  0  0  0
 19 45  1  0  0  0
 20 22  1  0  0  0
 20 46  1  0  0  0
 21 24  2  0  0  0
 21 25  1  0  0  0
 22 47  1  0  0  0
 23 26  1  0  0  0
 23 48  1  0  0  0
 23 49  1  0  0  0
 24 27  1  0  0  0
 24 50  1  0  0  0
 25 28  2  0  0  0
 25 51  1  0  0  0
 26 30  1  0  0  0
 26 52  1  0  0  0
 26 53  1  0  0  0
 27 29  2  0  0  0
 27 54  1  0  0  0
 28 29  1  0  0  0
 28 55  1  0  0  0
 29 56  1  0  0  0
 30 57  1  0  0  0
 30 58  1  0  0  0
 30 59  1  0  0  0
M  END
> <LID>
L022162

> <PC_CID>
10179322

> <Names>


> <CAS_Numbers>


$$$$
11293544
                    3D
 Structure written by MMmdl.
 64 68  0  0  1  0            999 V2000
    2.5421   -0.1327   -1.3614 O   0  0  0  0  0  0
   -4.1909   -2.1979    2.9425 O   0  0  0  0  0  0
   -5.5433   -0.7871    1.7720 N   0  0  0  0  0  0
    0.4986    2.3786   -0.5928 C   0  0  0  0  0  0
    1.7443    3.1152   -1.0808 C   0  0  0  0  0  0
   -0.7662    2.9347   -1.2433 C   0  0  0  0  0  0
    0.5143    1.3478    0.2916 C   0  0  0  0  0  0
    1.8229    3.1103   -2.6162 C   0  0  0  0  0  0
   -0.6373    2.9446   -2.7770 C   0  0  0  0  0  0
    1.7720    0.7988    0.8246 C   0  0  0  0  0  0
   -0.7252    0.7058    0.7592 C   0  0  0  0  0  0
    2.6723    0.1051   -0.0072 C   0  0  0  0  0  0
    3.8908   -0.4618    0.4666 C   0  0  0  0  0  0
    2.0853    0.9123    2.1948 C   0  0  0  0  0  0
    4.5271   -1.0705   -0.6929 C   0  0  0  0  0  0
    3.6489   -0.8353   -1.7901 C   0  0  0  0  0  0
   -0.9911   -0.6398    0.4299 C   0  0  0  0  0  0
   -1.6355    1.4087    1.5773 C   0  0  0  0  0  0
    4.1782   -0.3147    1.8428 C   0  0  0  0  0  0
    3.2830    0.3626    2.6977 C   0  0  0  0  0  0
   -3.0938   -0.5521    1.6745 C   0  0  0  0  0  0
   -2.1661   -1.2665    0.8875 C   0  0  0  0  0  0
   -2.8109    0.7835    2.0354 C   0  0  0  0  0  0
    5.7179   -1.7843   -0.9625 C   0  0  0  0  0  0
    3.9218   -1.2774   -3.0951 C   0  0  0  0  0  0
   -4.3288   -1.2417    2.1786 C   0  0  0  0  0  0
    6.0087   -2.2362   -2.2680 C   0  0  0  0  0  0
    5.1159   -1.9848   -3.3313 C   0  0  0  0  0  0
   -6.7794   -1.3841    2.2987 C   0  0  0  0  0  0
   -5.7591    0.2346    0.7339 C   0  0  0  0  0  0
   -7.2152   -0.7042    3.6042 C   0  0  0  0  0  0
   -5.6170   -0.3519   -0.6784 C   0  0  0  0  0  0
    1.6843    4.1440   -0.7238 H   0  0  0  0  0  0
    2.6663    2.7144   -0.6637 H   0  0  0  0  0  0
   -1.6585    2.3733   -0.9715 H   0  0  0  0  0  0
   -0.9199    3.9507   -0.8776 H   0  0  0  0  0  0
    2.6730    3.7038   -2.9535 H   0  0  0  0  0  0
    1.9791    2.0946   -2.9825 H   0  0  0  0  0  0
   -0.6055    1.9219   -3.1557 H   0  0  0  0  0  0
   -1.5080    3.4224   -3.2268 H   0  0  0  0  0  0
    1.4091    1.4240    2.8643 H   0  0  0  0  0  0
   -0.2921   -1.1965   -0.1775 H   0  0  0  0  0  0
   -1.4320    2.4320    1.8576 H   0  0  0  0  0  0
    5.0909   -0.7297    2.2443 H   0  0  0  0  0  0
    3.5162    0.4595    3.7479 H   0  0  0  0  0  0
   -2.3551   -2.2980    0.6268 H   0  0  0  0  0  0
   -3.4942    1.3336    2.6665 H   0  0  0  0  0  0
    6.4121   -1.9855   -0.1599 H   0  0  0  0  0  0
    3.2294   -1.0790   -3.8997 H   0  0  0  0  0  0
    6.9233   -2.7798   -2.4545 H   0  0  0  0  0  0
    5.3482   -2.3356   -4.3261 H   0  0  0  0  0  0
   -7.5811   -1.3055    1.5631 H   0  0  0  0  0  0
   -6.6566   -2.4560    2.4633 H   0  0  0  0  0  0
   -5.0907    1.0845    0.8535 H   0  0  0  0  0  0
   -6.7568    0.6631    0.8398 H   0  0  0  0  0  0
   -8.1408   -1.1421    3.9781 H   0  0  0  0  0  0
   -6.4588   -0.8162    4.3816 H   0  0  0  0  0  0
   -7.3886    0.3619    3.4555 H   0  0  0  0  0  0
   -5.8198    0.4075   -1.4336 H   0  0  0  0  0  0
   -4.6108   -0.7317   -0.8562 H   0  0  0  0  0  0
   -6.3177   -1.1721   -0.8370 H   0  0  0  0  0  0
    0.5842    3.6569   -3.2114 N   0  3  0  0  0  0
    0.6535    3.6076   -4.2181 H   0  0  0  0  0  0
    0.5014    4.6262   -2.9395 H   0  0  0  0  0  0
  1 12  1  0  0  0
  1 16  1  0  0  0
  2 26  2  0  0  0
  3 26  1  0  0  0
  3 29  1  0  0  0
  3 30  1  0  0  0
  4  5  1  0  0  0
  4  6  1  0  0  0
  4  7  2  0  0  0
  5  8  1  0  0  0
  5 33  1  0  0  0
  5 34  1  0  0  0
  6  9  1  0  0  0
  6 35  1  0  0  0
  6 36  1  0  0  0
  7 10  1  0  0  0
  7 11  1  0  0  0
  8 37  1  0  0  0
  8 38  1  0  0  0
  8 62  1  0  0  0
  9 39  1  0  0  0
  9 40  1  0  0  0
  9 62  1  0  0  0
 10 12  1  0  0  0
 10 14  2  0  0  0
 11 17  2  0  0  0
 11 18  1  0  0  0
 12 13  2  0  0  0
 13 15  1  0  0  0
 13 19  1  0  0  0
 14 20  1  0  0  0
 14 41  1  0  0  0
 15 16  1  0  0  0
 15 24  2  0  0  0
 16 25  2  0  0  0
 17 22  1  0  0  0
 17 42  1  0  0  0
 18 23  2  0  0  0
 18 43  1  0  0  0
 19 20  2  0  0  0
 19 44  1  0  0  0
 20 45  1  0  0  0
 21 22  2  0  0  0
 21 23  1  0  0  0
 21 26  1  0  0  0
 22 46  1  0  0  0
 23 47  1  0  0  0
 24 27  1  0  0  0
 24 48  1  0  0  0
 25 28  1  0  0  0
 25 49  1  0  0  0
 27 28  2  0  0  0
 27 50  1  0  0  0
 28 51  1  0  0  0
 29 31  1  0  0  0
 29 52  1  0  0  0
 29 53  1  0  0  0
 30 32  1  0  0  0
 30 54  1  0  0  0
 30 55  1  0  0  0
 31 56  1  0  0  0
 31 57  1  0  0  0
 31 58  1  0  0  0
 32 59  1  0  0  0
 32 60  1  0  0  0
 32 61  1  0  0  0
 62 63  1  0  0  0
 62 64  1  0  0  0
M  CHG  1  62   1
M  END
> <LID>
L023468

> <PC_CID>
11293544

> <Names>


> <CAS_Numbers>


$$$$
22504678
                    3D
 Structure written by MMmdl.
 67 70  0  0  1  0            999 V2000
   -6.4171    3.5828    0.8949 S   0  0  0  0  0  0
   -4.6650   -7.2457    6.6482 O   0  0  0  0  0  0
  -11.4713   -4.4474   -0.4616 O   0  0  0  0  0  0
   -7.4684   -4.0266    4.4329 N   0  0  0  0  0  0
  -12.9166   -5.2041    1.1284 N   0  0  0  0  0  0
   -6.4682   -2.9577    4.2433 C   0  0  0  0  0  0
   -7.0310   -1.5220    4.3619 C   0  0  0  0  0  0
   -5.5707   -3.1295    2.9946 C   0  0  0  0  0  0
   -7.5184   -0.9215    3.0263 C   0  0  0  0  0  0
   -6.1348   -2.4670    1.7208 C   0  0  0  0  0  0
   -5.3353   -0.1385    2.0640 C   0  0  0  0  0  0
   -8.4790   -4.1864    3.5503 C   0  0  0  0  0  0
   -7.2532   -4.9026    5.4432 C   0  0  0  0  0  0
   -5.7292    1.3020    1.9172 C   0  0  0  0  0  0
   -8.3335   -5.0715    2.4610 C   0  0  0  0  0  0
   -9.6996   -3.4998    3.7247 C   0  0  0  0  0  0
   -6.0469   -5.6362    5.5260 C   0  0  0  0  0  0
   -8.2415   -5.0935    6.4350 C   0  0  0  0  0  0
   -5.8839    2.2073    3.0122 C   0  0  0  0  0  0
   -5.9796    1.9062    0.7104 C   0  0  0  0  0  0
   -9.3861   -5.2485    1.5431 C   0  0  0  0  0  0
  -10.7528   -3.6774    2.8076 C   0  0  0  0  0  0
  -10.6086   -4.5663    1.7198 C   0  0  0  0  0  0
   -5.8334   -6.5441    6.5817 C   0  0  0  0  0  0
   -8.0285   -6.0010    7.4905 C   0  0  0  0  0  0
   -6.2533    3.4677    2.6238 C   0  0  0  0  0  0
   -6.8248   -6.7268    7.5650 C   0  0  0  0  0  0
  -11.7085   -4.7402    0.7112 C   0  0  0  0  0  0
  -14.0574   -5.2313    0.1983 C   0  0  0  0  0  0
  -13.1808   -5.7963    2.4535 C   0  0  0  0  0  0
  -14.1124   -6.5374   -0.6078 C   0  0  0  0  0  0
  -12.4993   -7.1626    2.6409 C   0  0  0  0  0  0
   -5.7911   -3.0467    5.0948 H   0  0  0  0  0  0
   -6.2433   -0.8789    4.7550 H   0  0  0  0  0  0
   -7.8253   -1.4844    5.1081 H   0  0  0  0  0  0
   -5.3662   -4.1842    2.8092 H   0  0  0  0  0  0
   -4.5992   -2.6834    3.2094 H   0  0  0  0  0  0
   -7.8077    0.1197    3.1661 H   0  0  0  0  0  0
   -8.4228   -1.4256    2.6919 H   0  0  0  0  0  0
   -7.0201   -2.9981    1.3755 H   0  0  0  0  0  0
   -5.4123   -2.5401    0.9071 H   0  0  0  0  0  0
   -4.8195   -0.3012    3.0104 H   0  0  0  0  0  0
   -4.6123   -0.3889    1.2865 H   0  0  0  0  0  0
   -7.4090   -5.6127    2.3214 H   0  0  0  0  0  0
   -9.8296   -2.8262    4.5590 H   0  0  0  0  0  0
   -5.2794   -5.5108    4.7767 H   0  0  0  0  0  0
   -9.1692   -4.5417    6.3935 H   0  0  0  0  0  0
   -5.7237    1.9056    4.0371 H   0  0  0  0  0  0
   -5.9338    1.4729   -0.2782 H   0  0  0  0  0  0
   -9.2543   -5.9197    0.7064 H   0  0  0  0  0  0
  -11.6720   -3.1259    2.9438 H   0  0  0  0  0  0
   -8.7896   -6.1397    8.2442 H   0  0  0  0  0  0
   -6.4368    4.3326    3.2444 H   0  0  0  0  0  0
   -6.6674   -7.4215    8.3772 H   0  0  0  0  0  0
  -14.9951   -5.0958    0.7380 H   0  0  0  0  0  0
  -14.0119   -4.3832   -0.4875 H   0  0  0  0  0  0
  -12.8878   -5.1180    3.2525 H   0  0  0  0  0  0
  -14.2523   -5.9367    2.5984 H   0  0  0  0  0  0
   -4.6213   -7.8283    7.3909 H   0  0  0  0  0  0
  -14.9425   -6.5189   -1.3141 H   0  0  0  0  0  0
  -13.1966   -6.6924   -1.1788 H   0  0  0  0  0  0
  -14.2549   -7.4005    0.0421 H   0  0  0  0  0  0
  -12.7667   -7.5938    3.6057 H   0  0  0  0  0  0
  -12.8044   -7.8698    1.8701 H   0  0  0  0  0  0
  -11.4130   -7.0864    2.6116 H   0  0  0  0  0  0
   -6.5060   -1.0482    1.9456 N   0  3  0  0  0  0
   -6.9719   -0.7535    1.0991 H   0  0  0  0  0  0
  1 20  1  0  0  0
  1 26  1  0  0  0
  2 24  1  0  0  0
  2 59  1  0  0  0
  3 28  2  0  0  0
  4  6  1  0  0  0
  4 12  1  0  0  0
  4 13  1  0  0  0
  5 28  1  0  0  0
  5 29  1  0  0  0
  5 30  1  0  0  0
  6  7  1  0  0  0
  6  8  1  0  0  0
  6 33  1  0  0  0
  7  9  1  0  0  0
  7 34  1  0  0  0
  7 35  1  0  0  0
  8 10  1  0  0  0
  8 36  1  0  0  0
  8 37  1  0  0  0
  9 38  1  0  0  0
  9 39  1  0  0  0
  9 66  1  0  0  0
 10 40  1  0  0  0
 10 41  1  0  0  0
 10 66  1  0  0  0
 11 14  1  0  0  0
 11 42  1  0  0  0
 11 43  1  0  0  0
 11 66  1  0  0  0
 12 15  2  0  0  0
 12 16  1  0  0  0
 13 17  2  0  0  0
 13 18  1  0  0  0
 14 19  1  0  0  0
 14 20  2  0  0  0
 15 21  1  0  0  0
 15 44  1  0  0  0
 16 22  2  0  0  0
 16 45  1  0  0  0
 17 24  1  0  0  0
 17 46  1  0  0  0
 18 25  2  0  0  0
 18 47  1  0  0  0
 19 26  2  0  0  0
 19 48  1  0  0  0
 20 49  1  0  0  0
 21 23  2  0  0  0
 21 50  1  0  0  0
 22 23  1  0  0  0
 22 51  1  0  0  0
 23 28  1  0  0  0
 24 27  2  0  0  0
 25 27  1  0  0  0
 25 52  1  0  0  0
 26 53  1  0  0  0
 27 54  1  0  0  0
 29 31  1  0  0  0
 29 55  1  0  0  0
 29 56  1  0  0  0
 30 32  1  0  0  0
 30 57  1  0  0  0
 30 58  1  0  0  0
 31 60  1  0  0  0
 31 61  1  0  0  0
 31 62  1  0  0  0
 32 63  1  0  0  0
 32 64  1  0  0  0
 32 65  1  0  0  0
 66 67  1  0  0  0
M  CHG  1  66   1
M  END
> <LID>
L020668

> <PC_CID>
22504678

> <Names>


> <CAS_Numbers>


$$$$
10098251
                    3D
 Structure written by MMmdl.
 73 77  0  0  1  0            999 V2000
    2.7633    1.6103   -1.3172 O   0  0  0  0  0  0
    7.5028    3.6059   -1.0656 O   0  0  0  0  0  0
    3.7984   -1.5262   -0.0081 N   0  0  0  0  0  0
    4.6676    0.5177   -0.7128 N   0  0  0  0  0  0
   -4.7528   -0.4167   -2.8932 N   0  0  0  0  0  0
    2.6689   -0.6768   -0.4427 C   0  0  0  0  0  0
    1.9097   -1.2879   -1.6573 C   0  0  0  0  0  0
    1.6891   -0.3655    0.7270 C   0  0  0  0  0  0
    0.5943   -0.5602   -1.9994 C   0  0  0  0  0  0
    0.3847    0.3232    0.2799 C   0  0  0  0  0  0
    3.3541    0.6222   -0.8813 C   0  0  0  0  0  0
    5.0469   -0.7718   -0.1782 C   0  0  0  0  0  0
   -1.6248    0.1031   -1.1525 C   0  0  0  0  0  0
    3.7909   -2.8046    0.4859 C   0  0  0  0  0  0
    5.6675    1.5484   -0.9748 C   0  0  0  0  0  0
   -2.7115   -0.3289   -0.1395 C   0  0  0  0  0  0
   -4.1361    0.2324   -0.4123 C   0  0  0  0  0  0
    5.7709    2.5364    0.2059 C   0  0  0  0  0  0
    5.0112   -3.4378    0.8456 C   0  0  0  0  0  0
    2.5988   -3.5550    0.6646 C   0  0  0  0  0  0
   -5.1091   -0.4173    0.5856 C   0  0  0  0  0  0
   -4.2366    1.7659   -0.2888 C   0  0  0  0  0  0
    5.0396   -4.7498    1.3560 C   0  0  0  0  0  0
    2.6239   -4.8673    1.1749 C   0  0  0  0  0  0
    6.8532    3.6035    0.0039 C   0  0  0  0  0  0
   -4.4846   -0.1319   -1.8033 C   0  0  0  0  0  0
    3.8447   -5.4683    1.5220 C   0  0  0  0  0  0
   -5.0792   -0.0320    1.9473 C   0  0  0  0  0  0
   -5.3438    2.4327   -0.8663 C   0  0  0  0  0  0
   -6.0310   -1.4170    0.1876 C   0  0  0  0  0  0
   -3.2810    2.5391    0.4177 C   0  0  0  0  0  0
   -5.9533   -0.6166    2.8835 C   0  0  0  0  0  0
   -5.4821    3.8300   -0.7641 C   0  0  0  0  0  0
   -6.9053   -2.0021    1.1241 C   0  0  0  0  0  0
   -3.4185    3.9368    0.5197 C   0  0  0  0  0  0
   -6.8688   -1.6016    2.4720 C   0  0  0  0  0  0
   -4.5171    4.5843   -0.0734 C   0  0  0  0  0  0
    2.5549   -1.2846   -2.5376 H   0  0  0  0  0  0
    1.6753   -2.3368   -1.5020 H   0  0  0  0  0  0
    1.4170   -1.2615    1.2771 H   0  0  0  0  0  0
    2.1852    0.2642    1.4678 H   0  0  0  0  0  0
    0.7842    0.4274   -2.4204 H   0  0  0  0  0  0
    0.0810   -1.1272   -2.7771 H   0  0  0  0  0  0
    0.5715    1.3460   -0.0476 H   0  0  0  0  0  0
   -0.2721    0.4043    1.1449 H   0  0  0  0  0  0
    5.5579   -0.6380    0.7766 H   0  0  0  0  0  0
    5.7168   -1.2765   -0.8762 H   0  0  0  0  0  0
   -1.5654    1.1875   -1.2470 H   0  0  0  0  0  0
   -1.9098   -0.2668   -2.1377 H   0  0  0  0  0  0
    6.6308    1.0671   -1.1515 H   0  0  0  0  0  0
    5.4127    2.0769   -1.8953 H   0  0  0  0  0  0
   -2.7657   -1.4185   -0.1691 H   0  0  0  0  0  0
   -2.4116   -0.0956    0.8807 H   0  0  0  0  0  0
    4.8163    3.0410    0.3588 H   0  0  0  0  0  0
    5.9936    1.9953    1.1262 H   0  0  0  0  0  0
    5.9609   -2.9363    0.7408 H   0  0  0  0  0  0
    1.6293   -3.1583    0.4205 H   0  0  0  0  0  0
    5.9829   -5.2047    1.6207 H   0  0  0  0  0  0
    1.7009   -5.4143    1.3001 H   0  0  0  0  0  0
    3.8645   -6.4749    1.9134 H   0  0  0  0  0  0
   -4.3811    0.7189    2.2860 H   0  0  0  0  0  0
   -6.1040    1.8728   -1.3913 H   0  0  0  0  0  0
   -6.0859   -1.7567   -0.8353 H   0  0  0  0  0  0
   -2.4304    2.0823    0.8978 H   0  0  0  0  0  0
   -5.9200   -0.3093    3.9184 H   0  0  0  0  0  0
   -6.3318    4.3226   -1.2135 H   0  0  0  0  0  0
   -7.6048   -2.7615    0.8069 H   0  0  0  0  0  0
   -2.6807    4.5133    1.0583 H   0  0  0  0  0  0
   -7.5398   -2.0512    3.1892 H   0  0  0  0  0  0
   -4.6226    5.6563    0.0068 H   0  0  0  0  0  0
    7.0114    4.4128    0.9433 O   0  5  0  0  0  0
   -0.2846   -0.4373   -0.8082 N   0  3  0  0  0  0
   -0.4324   -1.3776   -0.4699 H   0  0  0  0  0  0
  1 11  2  0  0  0
  2 25  2  0  0  0
  3  6  1  0  0  0
  3 12  1  0  0  0
  3 14  1  0  0  0
  4 11  1  0  0  0
  4 12  1  0  0  0
  4 15  1  0  0  0
  5 26  3  0  0  0
  6  7  1  0  0  0
  6  8  1  0  0  0
  6 11  1  0  0  0
  7  9  1  0  0  0
  7 38  1  0  0  0
  7 39  1  0  0  0
  8 10  1  0  0  0
  8 40  1  0  0  0
  8 41  1  0  0  0
  9 42  1  0  0  0
  9 43  1  0  0  0
  9 72  1  0  0  0
 10 44  1  0  0  0
 10 45  1  0  0  0
 10 72  1  0  0  0
 12 46  1  0  0  0
 12 47  1  0  0  0
 13 16  1  0  0  0
 13 48  1  0  0  0
 13 49  1  0  0  0
 13 72  1  0  0  0
 14 19  2  0  0  0
 14 20  1  0  0  0
 15 18  1  0  0  0
 15 50  1  0  0  0
 15 51  1  0  0  0
 16 17  1  0  0  0
 16 52  1  0  0  0
 16 53  1  0  0  0
 17 21  1  0  0  0
 17 22  1  0  0  0
 17 26  1  0  0  0
 18 25  1  0  0  0
 18 54  1  0  0  0
 18 55  1  0  0  0
 19 23  1  0  0  0
 19 56  1  0  0  0
 20 24  2  0  0  0
 20 57  1  0  0  0
 21 28  2  0  0  0
 21 30  1  0  0  0
 22 29  2  0  0  0
 22 31  1  0  0  0
 23 27  2  0  0  0
 23 58  1  0  0  0
 24 27  1  0  0  0
 24 59  1  0  0  0
 25 71  1  0  0  0
 27 60  1  0  0  0
 28 32  1  0  0  0
 28 61  1  0  0  0
 29 33  1  0  0  0
 29 62  1  0  0  0
 30 34  2  0  0  0
 30 63  1  0  0  0
 31 35  2  0  0  0
 31 64  1  0  0  0
 32 36  2  0  0  0
 32 65  1  0  0  0
 33 37  2  0  0  0
 33 66  1  0  0  0
 34 36  1  0  0  0
 34 67  1  0  0  0
 35 37  1  0  0  0
 35 68  1  0  0  0
 36 69  1  0  0  0
 37 70  1  0  0  0
 72 73  1  0  0  0
M  CHG  2  71  -1  72   1
M  END
> <LID>
L022596

> <PC_CID>
10098251

> <Names>


> <CAS_Numbers>


$$$$
9864102
                    3D
 Structure written by MMmdl.
 50 53  0  0  1  0            999 V2000
    2.4639   -4.4101    0.7697 O   0  0  0  0  0  0
   -1.5989   -0.3304    0.6459 N   0  0  0  0  0  0
    1.7964    1.3143    0.0144 C   0  0  1  0  0  0
    0.7721    0.2282    0.4545 C   0  0  1  0  0  0
    1.2289    2.7397    0.1538 C   0  0  0  0  0  0
   -0.0680    2.9080   -0.6404 C   0  0  0  0  0  0
   -0.7015    0.6076    0.2647 C   0  0  0  0  0  0
    3.1312    1.1624    0.7823 C   0  0  0  0  0  0
   -1.0928    1.8616   -0.2580 C   0  0  0  0  0  0
    1.0998   -1.1187   -0.1874 C   0  0  0  0  0  0
   -2.4676    2.1273   -0.4084 C   0  0  0  0  0  0
   -3.3990    1.1429   -0.0239 C   0  0  0  0  0  0
    1.6347   -2.1654    0.5946 C   0  0  0  0  0  0
   -2.9207   -0.0856    0.5066 C   0  0  0  0  0  0
    0.8757   -1.3288   -1.5663 C   0  0  0  0  0  0
    5.2745    2.2790    1.2421 C   0  0  0  0  0  0
    4.8019    1.4773   -1.0216 C   0  0  0  0  0  0
    1.9443   -3.4067    0.0052 C   0  0  0  0  0  0
    1.1837   -2.5702   -2.1552 C   0  0  0  0  0  0
   -4.7821    1.3806   -0.1626 C   0  0  0  0  0  0
   -3.8656   -1.0603    0.8907 C   0  0  0  0  0  0
    1.7186   -3.6095   -1.3703 C   0  0  0  0  0  0
   -5.7066    0.3940    0.2265 C   0  0  0  0  0  0
   -5.2477   -0.8269    0.7535 C   0  0  0  0  0  0
    1.9725    1.1738   -1.0516 H   0  0  0  0  0  0
    0.8715    0.1126    1.5352 H   0  0  0  0  0  0
    1.9523    3.4799   -0.1887 H   0  0  0  0  0  0
    1.0399    2.9567    1.2063 H   0  0  0  0  0  0
    0.1305    2.8231   -1.7094 H   0  0  0  0  0  0
   -0.4785    3.9044   -0.4721 H   0  0  0  0  0  0
    2.9557    1.4229    1.8275 H   0  0  0  0  0  0
    3.4632    0.1232    0.7850 H   0  0  0  0  0  0
   -2.8013    3.0738   -0.8086 H   0  0  0  0  0  0
    1.8105   -2.0197    1.6505 H   0  0  0  0  0  0
    0.4639   -0.5376   -2.1760 H   0  0  0  0  0  0
    6.0362    2.9460    0.8368 H   0  0  0  0  0  0
    4.8521    2.7621    2.1240 H   0  0  0  0  0  0
    5.7619    1.3554    1.5577 H   0  0  0  0  0  0
    5.5772    2.1454   -1.3985 H   0  0  0  0  0  0
    5.2501    0.4955   -0.8631 H   0  0  0  0  0  0
    4.0498    1.3853   -1.8041 H   0  0  0  0  0  0
    1.0087   -2.7254   -3.2096 H   0  0  0  0  0  0
   -5.1387    2.3172   -0.5662 H   0  0  0  0  0  0
   -3.5245   -2.0016    1.2961 H   0  0  0  0  0  0
    1.9530   -4.5596   -1.8279 H   0  0  0  0  0  0
   -6.7667    0.5736    0.1211 H   0  0  0  0  0  0
   -5.9559   -1.5857    1.0529 H   0  0  0  0  0  0
    2.6235   -5.2045    0.2836 H   0  0  0  0  0  0
    4.2241    2.0076    0.2356 N   0  3  0  0  0  0
    3.8126    2.9037    0.0156 H   0  0  0  0  0  0
  1 18  1  0  0  0
  1 48  1  0  0  0
  2  7  2  0  0  0
  2 14  1  0  0  0
  3  4  1  0  0  0
  3  5  1  0  0  0
  3  8  1  0  0  0
  3 25  1  0  0  0
  4  7  1  0  0  0
  4 10  1  0  0  0
  4 26  1  0  0  0
  5  6  1  0  0  0
  5 27  1  0  0  0
  5 28  1  0  0  0
  6  9  1  0  0  0
  6 29  1  0  0  0
  6 30  1  0  0  0
  7  9  1  0  0  0
  8 31  1  0  0  0
  8 32  1  0  0  0
  8 49  1  0  0  0
  9 11  2  0  0  0
 10 13  2  0  0  0
 10 15  1  0  0  0
 11 12  1  0  0  0
 11 33  1  0  0  0
 12 14  1  0  0  0
 12 20  2  0  0  0
 13 18  1  0  0  0
 13 34  1  0  0  0
 14 21  2  0  0  0
 15 19  2  0  0  0
 15 35  1  0  0  0
 16 36  1  0  0  0
 16 37  1  0  0  0
 16 38  1  0  0  0
 16 49  1  0  0  0
 17 39  1  0  0  0
 17 40  1  0  0  0
 17 41  1  0  0  0
 17 49  1  0  0  0
 18 22  2  0  0  0
 19 22  1  0  0  0
 19 42  1  0  0  0
 20 23  1  0  0  0
 20 43  1  0  0  0
 21 24  1  0  0  0
 21 44  1  0  0  0
 22 45  1  0  0  0
 23 24  2  0  0  0
 23 46  1  0  0  0
 24 47  1  0  0  0
 49 50  1  0  0  0
M  CHG  1  49   1
M  END
> <LID>
L019400

> <PC_CID>
9864102

> <Names>


> <CAS_Numbers>


$$$$
5284569
                    3D
 Structure written by MMmdl.
 44 48  0  0  1  0            999 V2000
   -1.5705   -0.8688    1.1745 O   0  0  0  0  0  0
   -1.6357   -3.1749   -0.3077 O   0  0  0  0  0  0
   -3.7959    1.1184    0.2896 O   0  0  0  0  0  0
    0.7083   -0.5070    0.6624 C   0  0  1  0  0  0
    1.8836   -0.9180   -0.2431 C   0  0  2  0  0  0
    2.6378    0.3814   -0.6142 C   0  0  1  0  0  0
   -0.3424   -1.6032    1.0060 C   0  0  2  0  0  0
    1.3146    0.0790    1.9619 C   0  0  0  0  0  0
   -0.1649    0.5144   -0.0007 C   0  0  0  0  0  0
    1.4258   -1.7660   -1.4432 C   0  0  0  0  0  0
    1.7213    1.4038   -1.3554 C   0  0  0  0  0  0
    2.2574    1.2680    1.6884 C   0  0  0  0  0  0
    0.2669    1.5086   -0.8899 C   0  0  0  0  0  0
    0.6687   -3.0166   -0.9697 C   0  0  0  0  0  0
   -0.5444   -2.6411   -0.1171 C   0  0  0  0  0  0
   -1.4624    0.2700    0.4173 C   0  0  0  0  0  0
    4.2334    2.0199    0.4055 C   0  0  0  0  0  0
   -0.7296    2.3994   -1.3334 C   0  0  0  0  0  0
   -2.4557    1.1849   -0.0290 C   0  0  0  0  0  0
   -2.0656    2.2464   -0.8872 C   0  0  0  0  0  0
   -4.2513    0.0557    1.1120 C   0  0  0  0  0  0
    2.5592   -1.5560    0.3304 H   0  0  0  0  0  0
    3.4675    0.1243   -1.2745 H   0  0  0  0  0  0
   -0.0796   -2.1358    1.9202 H   0  0  0  0  0  0
    1.8686   -0.7016    2.4852 H   0  0  0  0  0  0
    0.5252    0.3937    2.6462 H   0  0  0  0  0  0
    2.2916   -2.0684   -2.0330 H   0  0  0  0  0  0
    0.7890   -1.1861   -2.1125 H   0  0  0  0  0  0
    1.6710    1.1067   -2.4033 H   0  0  0  0  0  0
    2.1579    2.4011   -1.3700 H   0  0  0  0  0  0
    1.6869    2.1513    1.3990 H   0  0  0  0  0  0
    2.7816    1.5330    2.6074 H   0  0  0  0  0  0
    1.3252   -3.6572   -0.3805 H   0  0  0  0  0  0
    0.3373   -3.6017   -1.8280 H   0  0  0  0  0  0
    4.7863    2.2225    1.3233 H   0  0  0  0  0  0
    4.9577    1.7354   -0.3584 H   0  0  0  0  0  0
    3.7538    2.9490    0.0977 H   0  0  0  0  0  0
   -0.4810    3.1867   -2.0298 H   0  0  0  0  0  0
   -2.8163    2.9388   -1.2391 H   0  0  0  0  0  0
   -5.3258    0.1561    1.2640 H   0  0  0  0  0  0
   -4.0763   -0.9139    0.6441 H   0  0  0  0  0  0
   -3.7782    0.0796    2.0944 H   0  0  0  0  0  0
    3.2483    0.9373    0.6324 N   0  3  2  0  0  0
    3.7909    0.1736    1.0106 H   0  0  0  0  0  0
  1  7  1  0  0  0
  1 16  1  0  0  0
  2 15  2  0  0  0
  3 19  1  0  0  0
  3 21  1  0  0  0
  4  5  1  0  0  0
  4  7  1  0  0  0
  4  8  1  0  0  0
  4  9  1  0  0  0
  5  6  1  0  0  0
  5 10  1  0  0  0
  5 22  1  0  0  0
  6 11  1  0  0  0
  6 23  1  0  0  0
  6 43  1  0  0  0
  7 15  1  0  0  0
  7 24  1  0  0  0
  8 12  1  0  0  0
  8 25  1  0  0  0
  8 26  1  0  0  0
  9 13  2  0  0  0
  9 16  1  0  0  0
 10 14  1  0  0  0
 10 27  1  0  0  0
 10 28  1  0  0  0
 11 13  1  0  0  0
 11 29  1  0  0  0
 11 30  1  0  0  0
 12 31  1  0  0  0
 12 32  1  0  0  0
 12 43  1  0  0  0
 13 18  1  0  0  0
 14 15  1  0  0  0
 14 33  1  0  0  0
 14 34  1  0  0  0
 16 19  2  0  0  0
 17 35  1  0  0  0
 17 36  1  0  0  0
 17 37  1  0  0  0
 17 43  1  0  0  0
 18 20  2  0  0  0
 18 38  1  0  0  0
 19 20  1  0  0  0
 20 39  1  0  0  0
 21 40  1  0  0  0
 21 41  1  0  0  0
 21 42  1  0  0  0
 43 44  1  0  0  0
M  CHG  1  43   1
M  END
> <LID>
L001024

> <PC_CID>
5284569

> <Names>
Hydrocodone

> <CAS_Numbers>
1037-91-8;125-29-1;34195-34-1;50678-79-0;9007-52-7

$$$$
44216045
                    3D
 Structure written by MMmdl.
 74 77  0  0  1  0            999 V2000
    5.3892    1.7006   -1.5060 O   0  0  0  0  0  0
    0.7098   -7.4427   -0.4828 O   0  0  0  0  0  0
    4.8596    3.3613   -0.0396 N   0  0  0  0  0  0
    1.3621   -5.3139   -0.9954 N   0  0  0  0  0  0
   -6.5827    4.8739   -0.4267 N   0  0  0  0  0  0
   -3.6479   -0.8926    0.1451 C   0  0  0  0  0  0
   -2.6875    1.3331   -0.3027 C   0  0  0  0  0  0
   -2.5576   -1.1851    1.1903 C   0  0  0  0  0  0
   -1.5839    1.0903    0.7391 C   0  0  0  0  0  0
   -1.2861   -0.3974    0.8926 C   0  0  0  0  0  0
   -5.0466    0.8408   -0.9046 C   0  0  0  0  0  0
   -0.0512   -0.9497    0.7704 C   0  0  0  0  0  0
    1.1282   -0.1414    0.4189 C   0  0  0  0  0  0
    0.1876   -2.3868    0.9902 C   0  0  0  0  0  0
   -5.5847    2.2509   -0.7422 C   0  0  0  0  0  0
    1.2640    0.4050   -0.8756 C   0  0  0  0  0  0
    2.1627    0.0479    1.3589 C   0  0  0  0  0  0
    0.6457   -3.1971   -0.0705 C   0  0  0  0  0  0
    0.0056   -2.9599    2.2670 C   0  0  0  0  0  0
   -5.2717    3.2582   -1.6782 C   0  0  0  0  0  0
   -6.4081    2.5811    0.3535 C   0  0  0  0  0  0
    2.4049    1.1569   -1.2155 C   0  0  0  0  0  0
    3.3042    0.7995    1.0204 C   0  0  0  0  0  0
    3.4227    1.3743   -0.2632 C   0  0  0  0  0  0
    0.8916   -4.5725    0.1224 C   0  0  0  0  0  0
    0.2628   -4.3275    2.4743 C   0  0  0  0  0  0
    0.7065   -5.1333    1.4088 C   0  0  0  0  0  0
   -5.7955    4.5505   -1.4745 C   0  0  0  0  0  0
   -6.8803    3.9043    0.4640 C   0  0  0  0  0  0
    4.6411    2.1638   -0.6443 C   0  0  0  0  0  0
    6.0493    4.1574   -0.3768 C   0  0  0  0  0  0
    3.9181    4.0349    0.8710 C   0  0  0  0  0  0
    1.2682   -6.6363   -1.2251 C   0  0  0  0  0  0
    5.8534    4.9611   -1.6720 C   0  0  0  0  0  0
    4.3512    3.9355    2.3427 C   0  0  0  0  0  0
    1.8900   -7.1231   -2.5297 C   0  0  0  0  0  0
   -3.3463   -1.2898   -0.8257 H   0  0  0  0  0  0
   -4.5632   -1.4138    0.4286 H   0  0  0  0  0  0
   -2.9072    2.4002   -0.3357 H   0  0  0  0  0  0
   -2.3302    1.0533   -1.2952 H   0  0  0  0  0  0
   -2.3853   -2.2596    1.2202 H   0  0  0  0  0  0
   -2.9106   -0.9025    2.1828 H   0  0  0  0  0  0
   -1.9130    1.4661    1.7087 H   0  0  0  0  0  0
   -0.7023    1.6748    0.4825 H   0  0  0  0  0  0
   -4.7390    0.6668   -1.9370 H   0  0  0  0  0  0
   -5.8674    0.1503   -0.7048 H   0  0  0  0  0  0
    0.4906    0.2470   -1.6131 H   0  0  0  0  0  0
    2.0846   -0.3880    2.3443 H   0  0  0  0  0  0
    0.8014   -2.7570   -1.0452 H   0  0  0  0  0  0
   -0.3279   -2.3484    3.0928 H   0  0  0  0  0  0
   -4.6451    3.0524   -2.5337 H   0  0  0  0  0  0
   -6.6771    1.8424    1.0943 H   0  0  0  0  0  0
    2.4939    1.5700   -2.2101 H   0  0  0  0  0  0
    4.0939    0.9173    1.7467 H   0  0  0  0  0  0
    0.1271   -4.7589    3.4552 H   0  0  0  0  0  0
    0.9154   -6.1737    1.6054 H   0  0  0  0  0  0
   -5.5749    5.3454   -2.1715 H   0  0  0  0  0  0
   -7.5133    4.1912    1.2907 H   0  0  0  0  0  0
    1.7672   -4.7659   -1.7401 H   0  0  0  0  0  0
    6.2848    4.8466    0.4345 H   0  0  0  0  0  0
    6.9249    3.5122   -0.4679 H   0  0  0  0  0  0
    3.8556    5.0880    0.5934 H   0  0  0  0  0  0
    2.8998    3.6621    0.7601 H   0  0  0  0  0  0
    6.7381    5.5588   -1.8919 H   0  0  0  0  0  0
    5.6778    4.3074   -2.5267 H   0  0  0  0  0  0
    5.0059    5.6422   -1.5916 H   0  0  0  0  0  0
    3.6351    4.4460    2.9868 H   0  0  0  0  0  0
    4.4159    2.9034    2.6816 H   0  0  0  0  0  0
    5.3241    4.3978    2.5086 H   0  0  0  0  0  0
    1.7967   -8.2056   -2.6233 H   0  0  0  0  0  0
    1.3927   -6.6632   -3.3840 H   0  0  0  0  0  0
    2.9496   -6.8687   -2.5662 H   0  0  0  0  0  0
   -3.9182    0.5623    0.0187 N   0  3  1  0  0  0
   -4.2214    0.8727    0.9310 H   0  0  0  0  0  0
  1 30  2  0  0  0
  2 33  2  0  0  0
  3 30  1  0  0  0
  3 31  1  0  0  0
  3 32  1  0  0  0
  4 25  1  0  0  0
  4 33  1  0  0  0
  4 59  1  0  0  0
  5 28  2  0  0  0
  5 29  1  0  0  0
  6  8  1  0  0  0
  6 37  1  0  0  0
  6 38  1  0  0  0
  6 73  1  0  0  0
  7  9  1  0  0  0
  7 39  1  0  0  0
  7 40  1  0  0  0
  7 73  1  0  0  0
  8 10  1  0  0  0
  8 41  1  0  0  0
  8 42  1  0  0  0
  9 10  1  0  0  0
  9 43  1  0  0  0
  9 44  1  0  0  0
 10 12  2  0  0  0
 11 15  1  0  0  0
 11 45  1  0  0  0
 11 46  1  0  0  0
 11 73  1  0  0  0
 12 13  1  0  0  0
 12 14  1  0  0  0
 13 16  2  0  0  0
 13 17  1  0  0  0
 14 18  2  0  0  0
 14 19  1  0  0  0
 15 20  2  0  0  0
 15 21  1  0  0  0
 16 22  1  0  0  0
 16 47  1  0  0  0
 17 23  2  0  0  0
 17 48  1  0  0  0
 18 25  1  0  0  0
 18 49  1  0  0  0
 19 26  2  0  0  0
 19 50  1  0  0  0
 20 28  1  0  0  0
 20 51  1  0  0  0
 21 29  2  0  0  0
 21 52  1  0  0  0
 22 24  2  0  0  0
 22 53  1  0  0  0
 23 24  1  0  0  0
 23 54  1  0  0  0
 24 30  1  0  0  0
 25 27  2  0  0  0
 26 27  1  0  0  0
 26 55  1  0  0  0
 27 56  1  0  0  0
 28 57  1  0  0  0
 29 58  1  0  0  0
 31 34  1  0  0  0
 31 60  1  0  0  0
 31 61  1  0  0  0
 32 35  1  0  0  0
 32 62  1  0  0  0
 32 63  1  0  0  0
 33 36  1  0  0  0
 34 64  1  0  0  0
 34 65  1  0  0  0
 34 66  1  0  0  0
 35 67  1  0  0  0
 35 68  1  0  0  0
 35 69  1  0  0  0
 36 70  1  0  0  0
 36 71  1  0  0  0
 36 72  1  0  0  0
 73 74  1  0  0  0
M  CHG  1  73   1
M  END
> <LID>
L023131

> <PC_CID>
44216045

> <Names>


> <CAS_Numbers>


$$$$
9913010
                    3D
 Structure written by MMmdl.
 70 74  0  0  1  0            999 V2000
    5.6710   -5.2521    0.1853 O   0  0  0  0  0  0
   -5.9508    0.0772    0.0989 O   0  0  0  0  0  0
    1.4492    2.6904   -1.4384 N   0  0  0  0  0  0
   -5.2819   -2.1003    0.1193 N   0  0  0  0  0  0
    1.4523    0.3504    0.9252 C   0  0  0  0  0  0
    2.8858    0.8246    1.1356 C   0  0  0  0  0  0
    1.3778   -1.1705    0.8584 C   0  0  0  0  0  0
    3.8226    0.2366    0.0688 C   0  0  0  0  0  0
    2.3514   -1.7242   -0.1962 C   0  0  0  0  0  0
    0.3863    1.1793    0.7842 C   0  0  0  0  0  0
    4.7257   -1.8296   -0.9168 C   0  0  0  0  0  0
    0.5423    2.6468    0.8015 C   0  0  0  0  0  0
   -0.9870    0.6692    0.6334 C   0  0  0  0  0  0
    4.9349   -3.3052   -0.6860 C   0  0  0  0  0  0
    1.0589    3.3514   -0.3194 C   0  0  0  0  0  0
    0.1202    3.3492    1.9504 C   0  0  0  0  0  0
   -1.7060    0.9122   -0.5557 C   0  0  0  0  0  0
   -1.6165   -0.0247    1.6893 C   0  0  0  0  0  0
    4.3651   -4.3886   -1.4163 C   0  0  0  0  0  0
    5.7196   -3.8952    0.2680 C   0  0  0  0  0  0
    1.1592    4.7698   -0.2352 C   0  0  0  0  0  0
   -3.0261    0.4435   -0.6993 C   0  0  0  0  0  0
   -2.9360   -0.4948    1.5471 C   0  0  0  0  0  0
   -3.6415   -0.2792    0.3441 C   0  0  0  0  0  0
    0.2266    4.7489    2.0150 C   0  0  0  0  0  0
    0.7493    5.4603    0.9225 C   0  0  0  0  0  0
    4.8389   -5.5373   -0.8497 C   0  0  0  0  0  0
    1.6752    5.4910   -1.3316 C   0  0  0  0  0  0
   -5.0534   -0.7621    0.1827 C   0  0  0  0  0  0
    1.9396    3.3875   -2.4837 C   0  0  0  0  0  0
    2.0748    4.7866   -2.4806 C   0  0  0  0  0  0
   -6.6525   -2.6142   -0.0227 C   0  0  0  0  0  0
   -4.2364   -3.1356    0.0510 C   0  0  0  0  0  0
   -7.1347   -2.5662   -1.4811 C   0  0  0  0  0  0
   -4.0494   -3.8705    1.3882 C   0  0  0  0  0  0
    2.9742    1.9098    1.1407 H   0  0  0  0  0  0
    3.2070    0.4958    2.1247 H   0  0  0  0  0  0
    1.6306   -1.5694    1.8415 H   0  0  0  0  0  0
    0.3755   -1.5293    0.6302 H   0  0  0  0  0  0
    3.5700    0.6412   -0.9129 H   0  0  0  0  0  0
    4.8467    0.5443    0.2836 H   0  0  0  0  0  0
    2.0239   -1.4256   -1.1935 H   0  0  0  0  0  0
    2.3162   -2.8131   -0.1665 H   0  0  0  0  0  0
    4.4095   -1.6552   -1.9464 H   0  0  0  0  0  0
    5.6928   -1.3393   -0.7964 H   0  0  0  0  0  0
   -0.2868    2.8092    2.7932 H   0  0  0  0  0  0
   -1.2446    1.4590   -1.3652 H   0  0  0  0  0  0
   -1.0875   -0.1944    2.6158 H   0  0  0  0  0  0
    3.6876   -4.3340   -2.2557 H   0  0  0  0  0  0
    6.3535   -3.5125    1.0546 H   0  0  0  0  0  0
   -3.5625    0.6364   -1.6173 H   0  0  0  0  0  0
   -3.4069   -1.0072    2.3723 H   0  0  0  0  0  0
   -0.0948    5.2762    2.9014 H   0  0  0  0  0  0
    0.8288    6.5366    0.9755 H   0  0  0  0  0  0
    4.6938   -6.5890   -1.0496 H   0  0  0  0  0  0
    1.7632    6.5673   -1.2967 H   0  0  0  0  0  0
    2.2344    2.8109   -3.3480 H   0  0  0  0  0  0
    2.4732    5.3063   -3.3397 H   0  0  0  0  0  0
   -6.7087   -3.6427    0.3347 H   0  0  0  0  0  0
   -7.3371   -2.0515    0.6145 H   0  0  0  0  0  0
   -4.5129   -3.8624   -0.7139 H   0  0  0  0  0  0
   -3.2808   -2.7339   -0.2863 H   0  0  0  0  0  0
   -8.1436   -2.9700   -1.5667 H   0  0  0  0  0  0
   -7.1560   -1.5451   -1.8628 H   0  0  0  0  0  0
   -6.4870   -3.1537   -2.1323 H   0  0  0  0  0  0
   -3.2741   -4.6316    1.3004 H   0  0  0  0  0  0
   -3.7535   -3.1950    2.1884 H   0  0  0  0  0  0
   -4.9639   -4.3730    1.7029 H   0  0  0  0  0  0
    3.7421   -1.2459    0.0289 N   0  3  1  0  0  0
    4.0113   -1.5661    0.9482 H   0  0  0  0  0  0
  1 20  1  0  0  0
  1 27  1  0  0  0
  2 29  2  0  0  0
  3 15  1  0  0  0
  3 30  2  0  0  0
  4 29  1  0  0  0
  4 32  1  0  0  0
  4 33  1  0  0  0
  5  6  1  0  0  0
  5  7  1  0  0  0
  5 10  2  0  0  0
  6  8  1  0  0  0
  6 36  1  0  0  0
  6 37  1  0  0  0
  7  9  1  0  0  0
  7 38  1  0  0  0
  7 39  1  0  0  0
  8 40  1  0  0  0
  8 41  1  0  0  0
  8 69  1  0  0  0
  9 42  1  0  0  0
  9 43  1  0  0  0
  9 69  1  0  0  0
 10 12  1  0  0  0
 10 13  1  0  0  0
 11 14  1  0  0  0
 11 44  1  0  0  0
 11 45  1  0  0  0
 11 69  1  0  0  0
 12 15  1  0  0  0
 12 16  2  0  0  0
 13 17  2  0  0  0
 13 18  1  0  0  0
 14 19  1  0  0  0
 14 20  2  0  0  0
 15 21  2  0  0  0
 16 25  1  0  0  0
 16 46  1  0  0  0
 17 22  1  0  0  0
 17 47  1  0  0  0
 18 23  2  0  0  0
 18 48  1  0  0  0
 19 27  2  0  0  0
 19 49  1  0  0  0
 20 50  1  0  0  0
 21 26  1  0  0  0
 21 28  1  0  0  0
 22 24  2  0  0  0
 22 51  1  0  0  0
 23 24  1  0  0  0
 23 52  1  0  0  0
 24 29  1  0  0  0
 25 26  2  0  0  0
 25 53  1  0  0  0
 26 54  1  0  0  0
 27 55  1  0  0  0
 28 31  2  0  0  0
 28 56  1  0  0  0
 30 31  1  0  0  0
 30 57  1  0  0  0
 31 58  1  0  0  0
 32 34  1  0  0  0
 32 59  1  0  0  0
 32 60  1  0  0  0
 33 35  1  0  0  0
 33 61  1  0  0  0
 33 62  1  0  0  0
 34 63  1  0  0  0
 34 64  1  0  0  0
 34 65  1  0  0  0
 35 66  1  0  0  0
 35 67  1  0  0  0
 35 68  1  0  0  0
 69 70  1  0  0  0
M  CHG  1  69   1
M  END
> <LID>
L020877

> <PC_CID>
9913010

> <Names>


> <CAS_Numbers>


$$$$
18936212
                    3D
 Structure written by MMmdl.
 62 65  0  0  1  0            999 V2000
    3.4724    0.6222   -2.9772 F   0  0  0  0  0  0
    3.1517   -1.5006   -2.6468 F   0  0  0  0  0  0
    1.5629   -0.2764   -3.4358 F   0  0  0  0  0  0
   -4.8566   -2.9447   -0.5093 O   0  0  0  0  0  0
    4.7611   -0.1825    1.4359 O   0  0  0  0  0  0
    5.1405   -0.5010   -0.7918 O   0  0  0  0  0  0
    2.1502    0.2940    1.0423 N   0  0  0  0  0  0
   -1.6609    0.5789    0.8259 C   0  0  2  0  0  0
   -1.5975    1.1282   -0.6462 C   0  0  1  0  0  0
   -2.7700    1.3490    1.5962 C   0  0  0  0  0  0
   -0.2832    0.8258    1.5302 C   0  0  0  0  0  0
   -1.5172    2.6716   -0.6839 C   0  0  0  0  0  0
   -0.4621    0.4928   -1.4997 C   0  0  0  0  0  0
   -2.6888    2.8816    1.4625 C   0  0  0  0  0  0
    0.8563    0.4857    0.6334 C   0  0  0  0  0  0
    0.8196    0.3294   -0.7186 C   0  0  0  0  0  0
   -2.0353   -0.9269    0.7748 C   0  0  0  0  0  0
    2.1448   -0.0035   -1.1645 C   0  0  0  0  0  0
   -2.6816    4.7738   -0.1406 C   0  0  0  0  0  0
    2.9467   -0.0056   -0.0438 C   0  0  0  0  0  0
   -3.2567   -1.3271    0.1762 C   0  0  0  0  0  0
   -1.1980   -1.9452    1.2977 C   0  0  0  0  0  0
    2.5881   -0.2946   -2.5858 C   0  0  0  0  0  0
   -4.0621    5.3791    0.1534 C   0  0  0  0  0  0
   -3.6467   -2.6789    0.0953 C   0  0  0  0  0  0
   -1.5725   -3.2990    1.2245 C   0  0  0  0  0  0
    4.3793   -0.2543    0.1438 C   0  0  0  0  0  0
   -2.7898   -3.6698    0.6286 C   0  0  0  0  0  0
   -5.2729   -4.2992   -0.6054 C   0  0  0  0  0  0
    6.1190   -0.4002    1.7826 C   0  0  0  0  0  0
    6.2819   -0.2631    3.2983 C   0  0  0  0  0  0
   -2.5312    0.8946   -1.1577 H   0  0  0  0  0  0
   -2.7543    1.0674    2.6499 H   0  0  0  0  0  0
   -3.7560    1.0606    1.2339 H   0  0  0  0  0  0
   -0.1657    1.8765    1.7856 H   0  0  0  0  0  0
   -0.2145    0.3077    2.4868 H   0  0  0  0  0  0
   -0.5734    3.0264   -0.2672 H   0  0  0  0  0  0
   -1.5363    2.9989   -1.7243 H   0  0  0  0  0  0
   -0.2802    1.0809   -2.3993 H   0  0  0  0  0  0
   -0.7674   -0.4998   -1.8326 H   0  0  0  0  0  0
   -3.5613    3.3111    1.9535 H   0  0  0  0  0  0
   -1.8225    3.2819    1.9887 H   0  0  0  0  0  0
   -1.9156    5.2424    0.4791 H   0  0  0  0  0  0
   -2.4306    5.0158   -1.1742 H   0  0  0  0  0  0
    2.4795    0.3558    1.9956 H   0  0  0  0  0  0
   -3.9256   -0.5898   -0.2406 H   0  0  0  0  0  0
   -0.2484   -1.7271    1.7586 H   0  0  0  0  0  0
   -4.0699    6.4434   -0.0830 H   0  0  0  0  0  0
   -4.8385    4.9041   -0.4472 H   0  0  0  0  0  0
   -4.3397    5.2828    1.2026 H   0  0  0  0  0  0
   -0.9189   -4.0589    1.6271 H   0  0  0  0  0  0
   -3.0414   -4.7187    0.5913 H   0  0  0  0  0  0
   -6.2408   -4.3434   -1.1044 H   0  0  0  0  0  0
   -4.5713   -4.8912   -1.1947 H   0  0  0  0  0  0
   -5.3895   -4.7516    0.3803 H   0  0  0  0  0  0
    6.4288   -1.3955    1.4610 H   0  0  0  0  0  0
    6.7532    0.3247    1.2705 H   0  0  0  0  0  0
    7.3187   -0.4261    3.5926 H   0  0  0  0  0  0
    5.9913    0.7320    3.6358 H   0  0  0  0  0  0
    5.6661   -0.9914    3.8266 H   0  0  0  0  0  0
   -2.6525    3.2992    0.0380 N   0  3  1  0  0  0
   -3.4924    2.9435   -0.3963 H   0  0  0  0  0  0
  1 23  1  0  0  0
  2 23  1  0  0  0
  3 23  1  0  0  0
  4 25  1  0  0  0
  4 29  1  0  0  0
  5 27  1  0  0  0
  5 30  1  0  0  0
  6 27  2  0  0  0
  7 15  1  0  0  0
  7 20  1  0  0  0
  7 45  1  0  0  0
  8  9  1  0  0  0
  8 10  1  0  0  0
  8 11  1  0  0  0
  8 17  1  0  0  0
  9 12  1  0  0  0
  9 13  1  0  0  0
  9 32  1  0  0  0
 10 14  1  0  0  0
 10 33  1  0  0  0
 10 34  1  0  0  0
 11 15  1  0  0  0
 11 35  1  0  0  0
 11 36  1  0  0  0
 12 37  1  0  0  0
 12 38  1  0  0  0
 12 61  1  0  0  0
 13 16  1  0  0  0
 13 39  1  0  0  0
 13 40  1  0  0  0
 14 41  1  0  0  0
 14 42  1  0  0  0
 14 61  1  0  0  0
 15 16  2  0  0  0
 16 18  1  0  0  0
 17 21  2  0  0  0
 17 22  1  0  0  0
 18 20  2  0  0  0
 18 23  1  0  0  0
 19 24  1  0  0  0
 19 43  1  0  0  0
 19 44  1  0  0  0
 19 61  1  0  0  0
 20 27  1  0  0  0
 21 25  1  0  0  0
 21 46  1  0  0  0
 22 26  2  0  0  0
 22 47  1  0  0  0
 24 48  1  0  0  0
 24 49  1  0  0  0
 24 50  1  0  0  0
 25 28  2  0  0  0
 26 28  1  0  0  0
 26 51  1  0  0  0
 28 52  1  0  0  0
 29 53  1  0  0  0
 29 54  1  0  0  0
 29 55  1  0  0  0
 30 31  1  0  0  0
 30 56  1  0  0  0
 30 57  1  0  0  0
 31 58  1  0  0  0
 31 59  1  0  0  0
 31 60  1  0  0  0
 61 62  1  0  0  0
M  CHG  1  61   1
M  END
> <LID>
L012493

> <PC_CID>
18936212

> <Names>


> <CAS_Numbers>


$$$$
44216044
                    3D
 Structure written by MMmdl.
 74 77  0  0  1  0            999 V2000
    5.3153    1.7148   -1.6156 O   0  0  0  0  0  0
    0.6870   -7.4424   -0.4902 O   0  0  0  0  0  0
   -6.9528    3.8354    0.6379 N   0  0  0  0  0  0
    4.8163    3.3722   -0.1347 N   0  0  0  0  0  0
    1.3205   -5.3113   -1.0165 N   0  0  0  0  0  0
   -3.6731   -0.9044    0.2429 C   0  0  0  0  0  0
   -2.7300    1.3242   -0.2247 C   0  0  0  0  0  0
   -2.5586   -1.1946    1.2626 C   0  0  0  0  0  0
   -1.6019    1.0835    0.7910 C   0  0  0  0  0  0
   -1.2964   -0.4034    0.9363 C   0  0  0  0  0  0
   -5.1010    0.8227   -0.7754 C   0  0  0  0  0  0
   -0.0631   -0.9523    0.7852 C   0  0  0  0  0  0
    1.1056   -0.1405    0.4070 C   0  0  0  0  0  0
    0.1845   -2.3889    0.9982 C   0  0  0  0  0  0
   -5.6308    2.2388   -0.6320 C   0  0  0  0  0  0
    1.2096    0.4077   -0.8897 C   0  0  0  0  0  0
    2.1614    0.0504    1.3226 C   0  0  0  0  0  0
    0.6200   -3.1971   -0.0735 C   0  0  0  0  0  0
    0.0337   -2.9633    2.2784 C   0  0  0  0  0  0
   -5.3257    3.2312   -1.5871 C   0  0  0  0  0  0
   -6.4542    2.5944    0.4577 C   0  0  0  0  0  0
    2.3402    1.1629   -1.2554 C   0  0  0  0  0  0
    3.2927    0.8054    0.9583 C   0  0  0  0  0  0
    3.3795    1.3819   -0.3271 C   0  0  0  0  0  0
    0.8741   -4.5720    0.1126 C   0  0  0  0  0  0
    0.2994   -4.3305    2.4787 C   0  0  0  0  0  0
    0.7204   -5.1343    1.4025 C   0  0  0  0  0  0
   -5.8432    4.5278   -1.4072 C   0  0  0  0  0  0
    4.5866    2.1750   -0.7357 C   0  0  0  0  0  0
   -6.6502    4.7784   -0.2798 C   0  0  0  0  0  0
    5.9957    4.1718   -0.4990 C   0  0  0  0  0  0
    3.8950    4.0422    0.7989 C   0  0  0  0  0  0
    1.2254   -6.6338   -1.2449 C   0  0  0  0  0  0
    5.7671    4.9768   -1.7880 C   0  0  0  0  0  0
    4.3633    3.9421    2.2598 C   0  0  0  0  0  0
    1.8179   -7.1178   -2.5640 C   0  0  0  0  0  0
   -3.3924   -1.2997   -0.7349 H   0  0  0  0  0  0
   -4.5803   -1.4286    0.5464 H   0  0  0  0  0  0
   -2.9536    2.3906   -0.2504 H   0  0  0  0  0  0
   -2.3954    1.0469   -1.2257 H   0  0  0  0  0  0
   -2.3828   -2.2687    1.2879 H   0  0  0  0  0  0
   -2.8895   -0.9136    2.2632 H   0  0  0  0  0  0
   -1.9094    1.4576    1.7683 H   0  0  0  0  0  0
   -0.7280    1.6707    0.5145 H   0  0  0  0  0  0
   -4.8190    0.6276   -1.8114 H   0  0  0  0  0  0
   -5.9196    0.1396   -0.5438 H   0  0  0  0  0  0
    0.4194    0.2485   -1.6089 H   0  0  0  0  0  0
    2.1076   -0.3868    2.3092 H   0  0  0  0  0  0
    0.7518   -2.7559   -1.0511 H   0  0  0  0  0  0
   -0.2822   -2.3534    3.1123 H   0  0  0  0  0  0
   -4.7031    3.0062   -2.4408 H   0  0  0  0  0  0
   -6.7148    1.8637    1.2094 H   0  0  0  0  0  0
    2.4047    1.5774   -2.2513 H   0  0  0  0  0  0
    4.0990    0.9244    1.6661 H   0  0  0  0  0  0
    0.1876   -4.7629    3.4620 H   0  0  0  0  0  0
    0.9366   -6.1741    1.5933 H   0  0  0  0  0  0
   -5.6283    5.3131   -2.1169 H   0  0  0  0  0  0
   -7.0635    5.7617   -0.1110 H   0  0  0  0  0  0
    1.7063   -4.7615   -1.7701 H   0  0  0  0  0  0
    6.2487    4.8605    0.3075 H   0  0  0  0  0  0
    6.8705    3.5290   -0.6117 H   0  0  0  0  0  0
    3.8232    5.0955    0.5242 H   0  0  0  0  0  0
    2.8753    3.6669    0.7117 H   0  0  0  0  0  0
    6.6448    5.5771   -2.0280 H   0  0  0  0  0  0
    5.5729    4.3238   -2.6392 H   0  0  0  0  0  0
    4.9200    5.6556   -1.6865 H   0  0  0  0  0  0
    3.6613    4.4499    2.9213 H   0  0  0  0  0  0
    4.4387    2.9099    2.5956 H   0  0  0  0  0  0
    5.3386    4.4069    2.4031 H   0  0  0  0  0  0
    1.7256   -8.2005   -2.6563 H   0  0  0  0  0  0
    1.2994   -6.6587   -3.4061 H   0  0  0  0  0  0
    2.8756   -6.8602   -2.6251 H   0  0  0  0  0  0
   -3.9511    0.5499    0.1241 N   0  3  1  0  0  0
   -4.2318    0.8560    1.0448 H   0  0  0  0  0  0
  1 29  2  0  0  0
  2 33  2  0  0  0
  3 21  1  0  0  0
  3 30  2  0  0  0
  4 29  1  0  0  0
  4 31  1  0  0  0
  4 32  1  0  0  0
  5 25  1  0  0  0
  5 33  1  0  0  0
  5 59  1  0  0  0
  6  8  1  0  0  0
  6 37  1  0  0  0
  6 38  1  0  0  0
  6 73  1  0  0  0
  7  9  1  0  0  0
  7 39  1  0  0  0
  7 40  1  0  0  0
  7 73  1  0  0  0
  8 10  1  0  0  0
  8 41  1  0  0  0
  8 42  1  0  0  0
  9 10  1  0  0  0
  9 43  1  0  0  0
  9 44  1  0  0  0
 10 12  2  0  0  0
 11 15  1  0  0  0
 11 45  1  0  0  0
 11 46  1  0  0  0
 11 73  1  0  0  0
 12 13  1  0  0  0
 12 14  1  0  0  0
 13 16  2  0  0  0
 13 17  1  0  0  0
 14 18  2  0  0  0
 14 19  1  0  0  0
 15 20  1  0  0  0
 15 21  2  0  0  0
 16 22  1  0  0  0
 16 47  1  0  0  0
 17 23  2  0  0  0
 17 48  1  0  0  0
 18 25  1  0  0  0
 18 49  1  0  0  0
 19 26  2  0  0  0
 19 50  1  0  0  0
 20 28  2  0  0  0
 20 51  1  0  0  0
 21 52  1  0  0  0
 22 24  2  0  0  0
 22 53  1  0  0  0
 23 24  1  0  0  0
 23 54  1  0  0  0
 24 29  1  0  0  0
 25 27  2  0  0  0
 26 27  1  0  0  0
 26 55  1  0  0  0
 27 56  1  0  0  0
 28 30  1  0  0  0
 28 57  1  0  0  0
 30 58  1  0  0  0
 31 34  1  0  0  0
 31 60  1  0  0  0
 31 61  1  0  0  0
 32 35  1  0  0  0
 32 62  1  0  0  0
 32 63  1  0  0  0
 33 36  1  0  0  0
 34 64  1  0  0  0
 34 65  1  0  0  0
 34 66  1  0  0  0
 35 67  1  0  0  0
 35 68  1  0  0  0
 35 69  1  0  0  0
 36 70  1  0  0  0
 36 71  1  0  0  0
 36 72  1  0  0  0
 73 74  1  0  0  0
M  CHG  1  73   1
M  END
> <LID>
L023130

> <PC_CID>
44216044

> <Names>


> <CAS_Numbers>


$$$$
60815
                    3D
 Structure written by MMmdl.
 56 57  0  0  1  0            999 V2000
   -1.8375    2.0427    1.4367 O   0  0  0  0  0  0
   -0.5194    2.7832   -0.2742 O   0  0  0  0  0  0
   -4.2444   -0.5306   -1.2633 O   0  0  0  0  0  0
    6.3596   -1.0641    0.3524 O   0  0  0  0  0  0
    6.6067    0.3753   -1.4154 O   0  0  0  0  0  0
   -2.2337   -0.2548   -0.2376 N   0  0  0  0  0  0
   -0.8772    0.3777   -0.0341 C   0  0  0  0  0  0
   -0.0813   -0.3140    1.1276 C   0  0  0  0  0  0
    0.0144    0.1736   -1.3045 C   0  0  0  0  0  0
    1.3789    0.1508    1.2625 C   0  0  0  0  0  0
    1.5044    0.5508   -1.1414 C   0  0  0  0  0  0
   -1.0576    1.8709    0.3549 C   0  0  0  0  0  0
    3.5791    0.1591    0.1589 C   0  0  0  0  0  0
   -2.6348   -1.2764    0.6791 C   0  0  0  0  0  0
   -3.1542    0.0467   -1.2115 C   0  0  0  0  0  0
    4.4219   -0.5175   -0.9381 C   0  0  0  0  0  0
   -2.8916    1.0983   -2.3095 C   0  0  0  0  0  0
   -2.3979   -2.6343    0.3680 C   0  0  0  0  0  0
   -3.2807   -0.9373    1.8891 C   0  0  0  0  0  0
    5.9201   -0.3495   -0.6957 C   0  0  0  0  0  0
   -4.1791    1.7144   -2.8830 C   0  0  0  0  0  0
   -2.1017    3.3514    1.9106 C   0  0  0  0  0  0
   -2.7920   -3.6434    1.2675 C   0  0  0  0  0  0
   -3.6734   -1.9492    2.7862 C   0  0  0  0  0  0
   -3.4278   -3.3010    2.4767 C   0  0  0  0  0  0
    7.7315   -1.0137    0.7045 C   0  0  0  0  0  0
   -0.5767   -0.1668    2.0886 H   0  0  0  0  0  0
   -0.0473   -1.3928    0.9721 H   0  0  0  0  0  0
   -0.0437   -0.8729   -1.6079 H   0  0  0  0  0  0
   -0.3503    0.7435   -2.1538 H   0  0  0  0  0  0
    1.4377    1.2130    1.5051 H   0  0  0  0  0  0
    1.8404   -0.3839    2.0938 H   0  0  0  0  0  0
    2.0274    0.2781   -2.0576 H   0  0  0  0  0  0
    1.6247    1.6290   -1.0351 H   0  0  0  0  0  0
    3.7424    1.2383    0.1612 H   0  0  0  0  0  0
    3.9140   -0.2053    1.1316 H   0  0  0  0  0  0
    4.1994   -1.5841   -0.9786 H   0  0  0  0  0  0
    4.1850   -0.1061   -1.9191 H   0  0  0  0  0  0
   -2.2818    1.9214   -1.9556 H   0  0  0  0  0  0
   -2.3478    0.6167   -3.1220 H   0  0  0  0  0  0
   -1.9124   -2.9021   -0.5592 H   0  0  0  0  0  0
   -3.4790    0.0960    2.1314 H   0  0  0  0  0  0
   -4.7984    0.9659   -3.3789 H   0  0  0  0  0  0
   -4.7769    2.1842   -2.1010 H   0  0  0  0  0  0
   -3.9425    2.4809   -3.6211 H   0  0  0  0  0  0
   -2.7485    3.3043    2.7866 H   0  0  0  0  0  0
   -1.1778    3.8559    2.1958 H   0  0  0  0  0  0
   -2.6047    3.9468    1.1475 H   0  0  0  0  0  0
   -2.6084   -4.6808    1.0292 H   0  0  0  0  0  0
   -4.1659   -1.6883    3.7114 H   0  0  0  0  0  0
   -3.7310   -4.0760    3.1653 H   0  0  0  0  0  0
    7.9152   -1.6478    1.5719 H   0  0  0  0  0  0
    8.3571   -1.3689   -0.1154 H   0  0  0  0  0  0
    8.0312    0.0041    0.9574 H   0  0  0  0  0  0
    2.1296   -0.1310    0.0177 N   0  3  0  0  0  0
    2.0487   -1.1252   -0.1425 H   0  0  0  0  0  0
  1 12  1  0  0  0
  1 22  1  0  0  0
  2 12  2  0  0  0
  3 15  2  0  0  0
  4 20  1  0  0  0
  4 26  1  0  0  0
  5 20  2  0  0  0
  6  7  1  0  0  0
  6 14  1  0  0  0
  6 15  1  0  0  0
  7  8  1  0  0  0
  7  9  1  0  0  0
  7 12  1  0  0  0
  8 10  1  0  0  0
  8 27  1  0  0  0
  8 28  1  0  0  0
  9 11  1  0  0  0
  9 29  1  0  0  0
  9 30  1  0  0  0
 10 31  1  0  0  0
 10 32  1  0  0  0
 10 55  1  0  0  0
 11 33  1  0  0  0
 11 34  1  0  0  0
 11 55  1  0  0  0
 13 16  1  0  0  0
 13 35  1  0  0  0
 13 36  1  0  0  0
 13 55  1  0  0  0
 14 18  2  0  0  0
 14 19  1  0  0  0
 15 17  1  0  0  0
 16 20  1  0  0  0
 16 37  1  0  0  0
 16 38  1  0  0  0
 17 21  1  0  0  0
 17 39  1  0  0  0
 17 40  1  0  0  0
 18 23  1  0  0  0
 18 41  1  0  0  0
 19 24  2  0  0  0
 19 42  1  0  0  0
 21 43  1  0  0  0
 21 44  1  0  0  0
 21 45  1  0  0  0
 22 46  1  0  0  0
 22 47  1  0  0  0
 22 48  1  0  0  0
 23 25  2  0  0  0
 23 49  1  0  0  0
 24 25  1  0  0  0
 24 50  1  0  0  0
 25 51  1  0  0  0
 26 52  1  0  0  0
 26 53  1  0  0  0
 26 54  1  0  0  0
 55 56  1  0  0  0
M  CHG  1  55   1
M  END
> <LID>
L004288

> <PC_CID>
60815

> <Names>
remifentanil

> <CAS_Numbers>
132539-07-2;132875-61-7;132875-62-8

$$$$
10226507
                    3D
 Structure written by MMmdl.
 66 69  0  0  1  0            999 V2000
   -6.0270    3.2998    0.7802 S   0  0  0  0  0  0
   -1.7707   -5.5918   -1.9128 O   0  0  0  0  0  0
    5.8447   -0.0420   -0.1237 O   0  0  0  0  0  0
    5.0602    2.0895    0.0510 N   0  0  0  0  0  0
   -3.9125   -0.7064   -0.1591 C   0  0  0  0  0  0
   -2.5409    1.3389   -0.2885 C   0  0  0  0  0  0
   -2.9375   -1.3229    0.8561 C   0  0  0  0  0  0
   -1.5298    0.7566    0.7145 C   0  0  0  0  0  0
   -1.5292   -0.7679    0.6719 C   0  0  0  0  0  0
   -4.9257    1.3843   -0.9777 C   0  0  0  0  0  0
   -0.4211   -1.5304    0.4829 C   0  0  0  0  0  0
    0.9221   -0.9369    0.3685 C   0  0  0  0  0  0
   -0.4950   -2.9977    0.3812 C   0  0  0  0  0  0
   -5.1734    2.8250   -0.6669 C   0  0  0  0  0  0
    1.6492   -1.0579   -0.8344 C   0  0  0  0  0  0
    1.5171   -0.2852    1.4704 C   0  0  0  0  0  0
   -1.1132   -3.6096   -0.7315 C   0  0  0  0  0  0
    0.0950   -3.8076    1.3749 C   0  0  0  0  0  0
   -4.7952    3.9211   -1.4005 C   0  0  0  0  0  0
    3.5206    0.1715    0.1465 C   0  0  0  0  0  0
    2.9415   -0.5095   -0.9447 C   0  0  0  0  0  0
    2.8088    0.2644    1.3615 C   0  0  0  0  0  0
   -1.1626   -5.0132   -0.8373 C   0  0  0  0  0  0
   -5.1876    5.1559   -0.8056 C   0  0  0  0  0  0
    0.0476   -5.2113    1.2699 C   0  0  0  0  0  0
   -5.8607    4.9859    0.3749 C   0  0  0  0  0  0
    4.9039    0.7398    0.0196 C   0  0  0  0  0  0
   -0.5832   -5.8151    0.1654 C   0  0  0  0  0  0
    6.4008    2.6849   -0.0545 C   0  0  0  0  0  0
    3.9606    3.0694    0.0560 C   0  0  0  0  0  0
    6.8791    2.7659   -1.5126 C   0  0  0  0  0  0
    3.7400    3.6976    1.4416 C   0  0  0  0  0  0
   -4.9184   -1.0782    0.0399 H   0  0  0  0  0  0
   -3.6504   -1.0260   -1.1692 H   0  0  0  0  0  0
   -2.2108    1.1328   -1.3080 H   0  0  0  0  0  0
   -2.5594    2.4232   -0.1774 H   0  0  0  0  0  0
   -2.9777   -2.4087    0.7922 H   0  0  0  0  0  0
   -3.2637   -1.0765    1.8673 H   0  0  0  0  0  0
   -1.7901    1.0704    1.7260 H   0  0  0  0  0  0
   -0.5492    1.1807    0.5050 H   0  0  0  0  0  0
   -4.6229    1.2666   -2.0194 H   0  0  0  0  0  0
   -5.8667    0.8430   -0.8700 H   0  0  0  0  0  0
    1.2156   -1.5728   -1.6794 H   0  0  0  0  0  0
    0.9832   -0.2092    2.4065 H   0  0  0  0  0  0
   -1.5532   -2.9990   -1.5067 H   0  0  0  0  0  0
    0.5849   -3.3524    2.2236 H   0  0  0  0  0  0
   -4.2540    3.8813   -2.3345 H   0  0  0  0  0  0
    3.4848   -0.6093   -1.8735 H   0  0  0  0  0  0
    3.2543    0.7428    2.2205 H   0  0  0  0  0  0
   -4.9658    6.1116   -1.2577 H   0  0  0  0  0  0
    0.4974   -5.8250    2.0365 H   0  0  0  0  0  0
   -6.2681    5.7442    1.0277 H   0  0  0  0  0  0
   -0.6162   -6.8922    0.0904 H   0  0  0  0  0  0
    6.4033    3.6872    0.3747 H   0  0  0  0  0  0
    7.1170    2.1163    0.5412 H   0  0  0  0  0  0
    4.1947    3.8619   -0.6560 H   0  0  0  0  0  0
    3.0264    2.6417   -0.3083 H   0  0  0  0  0  0
    7.8647    3.2283   -1.5697 H   0  0  0  0  0  0
    6.9536    1.7770   -1.9656 H   0  0  0  0  0  0
    6.1985    3.3623   -2.1207 H   0  0  0  0  0  0
    2.9245    4.4202    1.4078 H   0  0  0  0  0  0
    3.4842    2.9528    2.1926 H   0  0  0  0  0  0
    4.6275    4.2254    1.7904 H   0  0  0  0  0  0
   -1.7430   -6.5362   -1.8930 H   0  0  0  0  0  0
   -3.9038    0.7771   -0.0892 N   0  3  1  0  0  0
   -4.1772    1.0151    0.8536 H   0  0  0  0  0  0
  1 14  1  0  0  0
  1 26  1  0  0  0
  2 23  1  0  0  0
  2 64  1  0  0  0
  3 27  2  0  0  0
  4 27  1  0  0  0
  4 29  1  0  0  0
  4 30  1  0  0  0
  5  7  1  0  0  0
  5 33  1  0  0  0
  5 34  1  0  0  0
  5 65  1  0  0  0
  6  8  1  0  0  0
  6 35  1  0  0  0
  6 36  1  0  0  0
  6 65  1  0  0  0
  7  9  1  0  0  0
  7 37  1  0  0  0
  7 38  1  0  0  0
  8  9  1  0  0  0
  8 39  1  0  0  0
  8 40  1  0  0  0
  9 11  2  0  0  0
 10 14  1  0  0  0
 10 41  1  0  0  0
 10 42  1  0  0  0
 10 65  1  0  0  0
 11 12  1  0  0  0
 11 13  1  0  0  0
 12 15  2  0  0  0
 12 16  1  0  0  0
 13 17  2  0  0  0
 13 18  1  0  0  0
 14 19  2  0  0  0
 15 21  1  0  0  0
 15 43  1  0  0  0
 16 22  2  0  0  0
 16 44  1  0  0  0
 17 23  1  0  0  0
 17 45  1  0  0  0
 18 25  2  0  0  0
 18 46  1  0  0  0
 19 24  1  0  0  0
 19 47  1  0  0  0
 20 21  2  0  0  0
 20 22  1  0  0  0
 20 27  1  0  0  0
 21 48  1  0  0  0
 22 49  1  0  0  0
 23 28  2  0  0  0
 24 26  2  0  0  0
 24 50  1  0  0  0
 25 28  1  0  0  0
 25 51  1  0  0  0
 26 52  1  0  0  0
 28 53  1  0  0  0
 29 31  1  0  0  0
 29 54  1  0  0  0
 29 55  1  0  0  0
 30 32  1  0  0  0
 30 56  1  0  0  0
 30 57  1  0  0  0
 31 58  1  0  0  0
 31 59  1  0  0  0
 31 60  1  0  0  0
 32 61  1  0  0  0
 32 62  1  0  0  0
 32 63  1  0  0  0
 65 66  1  0  0  0
M  CHG  1  65   1
M  END
> <LID>
L020869

> <PC_CID>
10226507

> <Names>


> <CAS_Numbers>


$$$$
44211509
                    3D
 Structure written by MMmdl.
 74 75  0  0  1  0            999 V2000
    1.8670    3.6988    1.1694 O   0  0  0  0  0  0
   -0.1017   -1.3707    1.9905 O   0  0  0  0  0  0
   -4.8877    1.3244   -0.2156 O   0  0  0  0  0  0
   -1.1467   -4.5868    1.8848 O   0  0  0  0  0  0
    0.4860    3.1379   -0.5487 N   0  0  0  0  0  0
    0.8941   -0.5461    0.1378 N   0  0  0  0  0  0
    1.0096   -3.9271    1.5741 N   0  0  0  0  0  0
    0.8995    1.7604   -0.8375 C   0  0  0  0  0  0
    0.6195    0.8619    0.3958 C   0  0  0  0  0  0
    0.0398    1.3003   -2.0325 C   0  0  0  0  0  0
    2.3892    1.7177   -1.2451 C   0  0  0  0  0  0
    0.2326    5.3283    0.5107 C   0  0  1  0  0  0
    0.8837   -2.9671    0.4684 C   0  0  1  0  0  0
    0.9467    3.9740    0.3997 C   0  0  0  0  0  0
   -1.0363    5.2569    1.3970 C   0  0  0  0  0  0
    0.0242   -3.4697   -0.7227 C   0  0  0  0  0  0
    0.5153   -1.5514    0.9400 C   0  0  0  0  0  0
   -2.0920    4.2214    0.9874 C   0  0  0  0  0  0
    0.5158   -4.7748   -1.3793 C   0  0  0  0  0  0
   -2.2370    3.0076    1.7178 C   0  0  0  0  0  0
   -2.9265    4.4501   -0.1428 C   0  0  0  0  0  0
    1.9427   -4.6922   -1.8923 C   0  0  0  0  0  0
   -3.1792    2.0434    1.3042 C   0  0  0  0  0  0
   -3.8605    3.4705   -0.5394 C   0  0  0  0  0  0
   -1.3988    2.6960    2.9484 C   0  0  0  0  0  0
   -2.8508    5.7270   -0.9660 C   0  0  0  0  0  0
   -3.9853    2.2691    0.1773 C   0  0  0  0  0  0
    0.0472   -4.6508    2.1717 C   0  0  0  0  0  0
    2.9856   -5.3463   -1.2025 C   0  0  0  0  0  0
    2.2329   -3.9527   -3.0582 C   0  0  0  0  0  0
    0.5120   -5.5901    3.2785 C   0  0  0  0  0  0
    4.3097   -5.2589   -1.6745 C   0  0  0  0  0  0
    3.5572   -3.8659   -3.5298 C   0  0  0  0  0  0
    4.5958   -4.5187   -2.8380 C   0  0  0  0  0  0
    1.2211    1.1698    1.2516 H   0  0  0  0  0  0
   -0.4250    0.9669    0.6929 H   0  0  0  0  0  0
   -0.2833    3.4763   -1.1088 H   0  0  0  0  0  0
    0.2995    0.2926   -2.3581 H   0  0  0  0  0  0
   -1.0217    1.2986   -1.7799 H   0  0  0  0  0  0
    0.1710    1.9579   -2.8928 H   0  0  0  0  0  0
    2.6802    0.7249   -1.5891 H   0  0  0  0  0  0
    2.5978    2.4147   -2.0575 H   0  0  0  0  0  0
    3.0477    1.9723   -0.4146 H   0  0  0  0  0  0
   -0.0418    5.6428   -0.4952 H   0  0  0  0  0  0
    1.3964   -0.7705   -0.7087 H   0  0  0  0  0  0
    1.9054   -2.8675    0.1001 H   0  0  0  0  0  0
   -1.5133    6.2360    1.4210 H   0  0  0  0  0  0
   -0.7351    5.1006    2.4316 H   0  0  0  0  0  0
   -1.0167   -3.5864   -0.4224 H   0  0  0  0  0  0
    0.0055   -2.6962   -1.4917 H   0  0  0  0  0  0
    0.4296   -5.6033   -0.6756 H   0  0  0  0  0  0
   -0.1365   -5.0277   -2.2158 H   0  0  0  0  0  0
    1.9479   -4.0608    1.9214 H   0  0  0  0  0  0
    1.9541    6.4261    0.4135 H   0  0  0  0  0  0
    0.6842    7.2513    1.0732 H   0  0  0  0  0  0
   -3.2857    1.1182    1.8522 H   0  0  0  0  0  0
   -4.4872    3.6409   -1.4028 H   0  0  0  0  0  0
   -0.3343    2.7748    2.7321 H   0  0  0  0  0  0
   -1.6433    3.3820    3.7594 H   0  0  0  0  0  0
   -1.5806    1.6821    3.3067 H   0  0  0  0  0  0
   -1.9901    5.7041   -1.6331 H   0  0  0  0  0  0
   -3.7397    5.8409   -1.5873 H   0  0  0  0  0  0
   -2.7909    6.6146   -0.3379 H   0  0  0  0  0  0
    2.7742   -5.9130   -0.3073 H   0  0  0  0  0  0
    1.4405   -3.4488   -3.5922 H   0  0  0  0  0  0
   -0.3291   -6.1473    3.6922 H   0  0  0  0  0  0
    1.2379   -6.3057    2.8914 H   0  0  0  0  0  0
    0.9775   -5.0252    4.0865 H   0  0  0  0  0  0
    5.1061   -5.7595   -1.1437 H   0  0  0  0  0  0
    3.7763   -3.2986   -4.4224 H   0  0  0  0  0  0
    5.6113   -4.4521   -3.1998 H   0  0  0  0  0  0
   -5.3867    1.5777   -0.9769 H   0  0  0  0  0  0
    1.1538    6.3586    1.0260 N   0  3  0  0  0  0
    1.4676    6.0869    1.9472 H   0  0  0  0  0  0
  1 14  2  0  0  0
  2 17  2  0  0  0
  3 27  1  0  0  0
  3 72  1  0  0  0
  4 28  2  0  0  0
  5  8  1  0  0  0
  5 14  1  0  0  0
  5 37  1  0  0  0
  6  9  1  0  0  0
  6 17  1  0  0  0
  6 45  1  0  0  0
  7 13  1  0  0  0
  7 28  1  0  0  0
  7 53  1  0  0  0
  8  9  1  0  0  0
  8 10  1  0  0  0
  8 11  1  0  0  0
  9 35  1  0  0  0
  9 36  1  0  0  0
 10 38  1  0  0  0
 10 39  1  0  0  0
 10 40  1  0  0  0
 11 41  1  0  0  0
 11 42  1  0  0  0
 11 43  1  0  0  0
 12 14  1  0  0  0
 12 15  1  0  0  0
 12 44  1  0  0  0
 12 73  1  0  0  0
 13 16  1  0  0  0
 13 17  1  0  0  0
 13 46  1  0  0  0
 15 18  1  0  0  0
 15 47  1  0  0  0
 15 48  1  0  0  0
 16 19  1  0  0  0
 16 49  1  0  0  0
 16 50  1  0  0  0
 18 20  2  0  0  0
 18 21  1  0  0  0
 19 22  1  0  0  0
 19 51  1  0  0  0
 19 52  1  0  0  0
 20 23  1  0  0  0
 20 25  1  0  0  0
 21 24  2  0  0  0
 21 26  1  0  0  0
 22 29  2  0  0  0
 22 30  1  0  0  0
 23 27  2  0  0  0
 23 56  1  0  0  0
 24 27  1  0  0  0
 24 57  1  0  0  0
 25 58  1  0  0  0
 25 59  1  0  0  0
 25 60  1  0  0  0
 26 61  1  0  0  0
 26 62  1  0  0  0
 26 63  1  0  0  0
 28 31  1  0  0  0
 29 32  1  0  0  0
 29 64  1  0  0  0
 30 33  2  0  0  0
 30 65  1  0  0  0
 31 66  1  0  0  0
 31 67  1  0  0  0
 31 68  1  0  0  0
 32 34  2  0  0  0
 32 69  1  0  0  0
 33 34  1  0  0  0
 33 70  1  0  0  0
 34 71  1  0  0  0
 54 73  1  0  0  0
 55 73  1  0  0  0
 73 74  1  0  0  0
M  CHG  1  73   1
M  END
> <LID>
L010056

> <PC_CID>
44211509

> <Names>


> <CAS_Numbers>


$$$$
44211508
                    3D
 Structure written by MMmdl.
 76 77  0  0  1  0            999 V2000
    3.2076   -1.4951   -2.1899 O   0  0  0  0  0  0
   -1.1095   -4.1661   -0.0153 O   0  0  0  0  0  0
    2.3526    4.9242    0.8703 O   0  0  0  0  0  0
   -3.1526   -0.6683    1.9121 O   0  0  0  0  0  0
    0.3731    3.7757    0.5835 O   0  0  0  0  0  0
    2.6482   -0.5257   -0.2094 N   0  0  0  0  0  0
   -0.8359   -1.9498   -0.3269 N   0  0  0  0  0  0
   -3.5662   -1.4514   -0.1806 N   0  0  0  0  0  0
    1.1841   -0.4902   -0.2808 C   0  0  0  0  0  0
    0.6198   -1.9312   -0.3890 C   0  0  0  0  0  0
    0.7133    0.1742    1.0296 C   0  0  0  0  0  0
    0.7268    0.3864   -1.4687 C   0  0  0  0  0  0
    5.0133   -0.8000   -0.7662 C   0  0  2  0  0  0
    3.5293   -0.9799   -1.1193 C   0  0  0  0  0  0
    5.5529    0.6010   -1.1515 C   0  0  0  0  0  0
    4.7491    1.7992   -0.6297 C   0  0  0  0  0  0
   -3.1212   -2.8499   -0.0581 C   0  0  1  0  0  0
   -1.5921   -3.0395   -0.1278 C   0  0  0  0  0  0
   -3.7951   -3.6122    1.1116 C   0  0  0  0  0  0
    4.8077    2.1657    0.7438 C   0  0  0  0  0  0
    3.9016    2.5355   -1.5046 C   0  0  0  0  0  0
   -5.3115   -3.6736    1.0382 C   0  0  0  0  0  0
    3.9994    3.2147    1.2282 C   0  0  0  0  0  0
    3.1092    3.5862   -0.9999 C   0  0  0  0  0  0
    3.1321    3.9112    0.3695 C   0  0  0  0  0  0
    5.7083    1.4508    1.7392 C   0  0  0  0  0  0
    3.7983    2.2199   -2.9887 C   0  0  0  0  0  0
   -3.5914   -0.5061    0.7750 C   0  0  0  0  0  0
   -5.9404   -4.5440    0.1231 C   0  0  0  0  0  0
   -6.0986   -2.8610    1.8818 C   0  0  0  0  0  0
   -7.3460   -4.5987    0.0496 C   0  0  0  0  0  0
   -7.5039   -2.9156    1.8074 C   0  0  0  0  0  0
   -4.1810    0.8397    0.3709 C   0  0  0  0  0  0
   -8.1280   -3.7843    0.8913 C   0  0  0  0  0  0
    1.0115    4.7719    0.9274 C   0  0  0  0  0  0
    0.3142    6.0037    1.4886 C   0  0  0  0  0  0
    0.9226   -2.4033   -1.3240 H   0  0  0  0  0  0
    1.0216   -2.5463    0.4185 H   0  0  0  0  0  0
    3.0404   -0.1102    0.6234 H   0  0  0  0  0  0
   -0.3671    0.3209    1.0491 H   0  0  0  0  0  0
    0.9768   -0.4294    1.8990 H   0  0  0  0  0  0
    1.1705    1.1557    1.1623 H   0  0  0  0  0  0
    1.0056   -0.0471   -2.4290 H   0  0  0  0  0  0
    1.1649    1.3831   -1.4165 H   0  0  0  0  0  0
   -0.3558    0.5148   -1.4772 H   0  0  0  0  0  0
    5.1161   -0.9442    0.3085 H   0  0  0  0  0  0
    5.6510    0.6538   -2.2344 H   0  0  0  0  0  0
    6.5799    0.6998   -0.8016 H   0  0  0  0  0  0
   -1.3093   -1.0618   -0.4092 H   0  0  0  0  0  0
   -3.4790   -3.3220   -0.9738 H   0  0  0  0  0  0
   -3.4397   -4.6435    1.1287 H   0  0  0  0  0  0
   -3.4934   -3.1967    2.0731 H   0  0  0  0  0  0
    5.4967   -2.7575   -1.1010 H   0  0  0  0  0  0
    5.7336   -1.7823   -2.4036 H   0  0  0  0  0  0
   -3.9440   -1.1937   -1.0808 H   0  0  0  0  0  0
    4.0315    3.4839    2.2740 H   0  0  0  0  0  0
    2.4592    4.1392   -1.6624 H   0  0  0  0  0  0
    5.2677    0.5022    2.0435 H   0  0  0  0  0  0
    6.7017    1.2677    1.3321 H   0  0  0  0  0  0
    5.8425    2.0506    2.6400 H   0  0  0  0  0  0
    3.0514    2.8458   -3.4779 H   0  0  0  0  0  0
    4.7525    2.3981   -3.4848 H   0  0  0  0  0  0
    3.5068    1.1824   -3.1489 H   0  0  0  0  0  0
   -5.3460   -5.1706   -0.5258 H   0  0  0  0  0  0
   -5.6269   -2.1905    2.5854 H   0  0  0  0  0  0
   -7.8242   -5.2656   -0.6527 H   0  0  0  0  0  0
   -8.1031   -2.2907    2.4533 H   0  0  0  0  0  0
   -5.2053    0.7168    0.0179 H   0  0  0  0  0  0
   -4.1923    1.5271    1.2174 H   0  0  0  0  0  0
   -3.5895    1.2903   -0.4266 H   0  0  0  0  0  0
   -9.2057   -3.8262    0.8347 H   0  0  0  0  0  0
   -0.7646    5.8504    1.5234 H   0  0  0  0  0  0
    0.6668    6.2107    2.4991 H   0  0  0  0  0  0
    0.5200    6.8728    0.8637 H   0  0  0  0  0  0
    5.8298   -1.8521   -1.4003 N   0  3  0  0  0  0
    6.7993   -1.7424   -1.1402 H   0  0  0  0  0  0
  1 14  2  0  0  0
  2 18  2  0  0  0
  3 25  1  0  0  0
  3 35  1  0  0  0
  4 28  2  0  0  0
  5 35  2  0  0  0
  6  9  1  0  0  0
  6 14  1  0  0  0
  6 39  1  0  0  0
  7 10  1  0  0  0
  7 18  1  0  0  0
  7 49  1  0  0  0
  8 17  1  0  0  0
  8 28  1  0  0  0
  8 55  1  0  0  0
  9 10  1  0  0  0
  9 11  1  0  0  0
  9 12  1  0  0  0
 10 37  1  0  0  0
 10 38  1  0  0  0
 11 40  1  0  0  0
 11 41  1  0  0  0
 11 42  1  0  0  0
 12 43  1  0  0  0
 12 44  1  0  0  0
 12 45  1  0  0  0
 13 14  1  0  0  0
 13 15  1  0  0  0
 13 46  1  0  0  0
 13 75  1  0  0  0
 15 16  1  0  0  0
 15 47  1  0  0  0
 15 48  1  0  0  0
 16 20  2  0  0  0
 16 21  1  0  0  0
 17 18  1  0  0  0
 17 19  1  0  0  0
 17 50  1  0  0  0
 19 22  1  0  0  0
 19 51  1  0  0  0
 19 52  1  0  0  0
 20 23  1  0  0  0
 20 26  1  0  0  0
 21 24  2  0  0  0
 21 27  1  0  0  0
 22 29  2  0  0  0
 22 30  1  0  0  0
 23 25  2  0  0  0
 23 56  1  0  0  0
 24 25  1  0  0  0
 24 57  1  0  0  0
 26 58  1  0  0  0
 26 59  1  0  0  0
 26 60  1  0  0  0
 27 61  1  0  0  0
 27 62  1  0  0  0
 27 63  1  0  0  0
 28 33  1  0  0  0
 29 31  1  0  0  0
 29 64  1  0  0  0
 30 32  2  0  0  0
 30 65  1  0  0  0
 31 34  2  0  0  0
 31 66  1  0  0  0
 32 34  1  0  0  0
 32 67  1  0  0  0
 33 68  1  0  0  0
 33 69  1  0  0  0
 33 70  1  0  0  0
 34 71  1  0  0  0
 35 36  1  0  0  0
 36 72  1  0  0  0
 36 73  1  0  0  0
 36 74  1  0  0  0
 53 75  1  0  0  0
 54 75  1  0  0  0
 75 76  1  0  0  0
M  CHG  1  75   1
M  END
> <LID>
L010055

> <PC_CID>
44211508

> <Names>


> <CAS_Numbers>


$$$$
10479725
                    3D
 Structure written by MMmdl.
 73 76  0  0  1  0            999 V2000
    3.7592    3.1718   -0.1160 O   0  0  0  0  0  0
   -3.9745    1.1075    0.3134 N   0  0  0  0  0  0
    5.2332    1.6999   -1.0379 N   0  0  0  0  0  0
    0.0211   -3.2067    0.2449 C   0  0  0  0  0  0
    1.3876   -3.7576    0.6477 C   0  0  0  0  0  0
   -1.0770   -4.2541    0.4190 C   0  0  0  0  0  0
    1.3514   -4.3525    2.0649 C   0  0  0  0  0  0
   -1.0569   -4.8490    1.8382 C   0  0  0  0  0  0
   -0.1915   -1.9411   -0.1997 C   0  0  0  0  0  0
   -1.5189   -1.4725   -0.6331 C   0  0  0  0  0  0
    0.8982   -0.9548   -0.2847 C   0  0  0  0  0  0
   -2.1456   -0.4118    0.0536 C   0  0  0  0  0  0
   -3.4000    0.0847   -0.3647 C   0  0  0  0  0  0
   -2.1545   -2.0348   -1.7608 C   0  0  0  0  0  0
    1.4641   -0.4090    0.8876 C   0  0  0  0  0  0
    1.3424   -0.4967   -1.5425 C   0  0  0  0  0  0
    2.9475    0.9938   -0.4562 C   0  0  0  0  0  0
   -4.0286   -0.4974   -1.4887 C   0  0  0  0  0  0
   -3.4072   -1.5524   -2.1832 C   0  0  0  0  0  0
    2.4813    0.5608    0.8028 C   0  0  0  0  0  0
    2.3598    0.4728   -1.6290 C   0  0  0  0  0  0
   -5.3410    0.9050    0.8074 C   0  0  0  0  0  0
   -3.3559    2.2816    0.5972 C   0  0  0  0  0  0
    4.0190    2.0420   -0.5320 C   0  0  0  0  0  0
    6.3041    2.7026   -1.1411 C   0  0  0  0  0  0
    5.6470    0.3324   -1.3958 C   0  0  0  0  0  0
   -5.4108   -0.1247    1.9455 C   0  0  0  0  0  0
   -3.4204    2.8578    1.8884 C   0  0  0  0  0  0
   -2.6205    2.9492   -0.4100 C   0  0  0  0  0  0
    7.0314    2.9047    0.1975 C   0  0  0  0  0  0
    5.6591    0.1012   -2.9156 C   0  0  0  0  0  0
   -2.7636    4.0728    2.1644 C   0  0  0  0  0  0
   -1.9629    4.1635   -0.1339 C   0  0  0  0  0  0
   -2.0342    4.7263    1.1538 C   0  0  0  0  0  0
    1.6556   -4.5374   -0.0662 H   0  0  0  0  0  0
    2.1805   -3.0145    0.5822 H   0  0  0  0  0  0
   -0.9151   -5.0435   -0.3160 H   0  0  0  0  0  0
   -2.0706   -3.8533    0.2256 H   0  0  0  0  0  0
    2.3100   -4.8123    2.3069 H   0  0  0  0  0  0
    1.1821   -3.5637    2.7995 H   0  0  0  0  0  0
   -1.7846   -5.6568    1.9200 H   0  0  0  0  0  0
   -1.3437   -4.0888    2.5663 H   0  0  0  0  0  0
   -1.6552    0.0278    0.9106 H   0  0  0  0  0  0
   -1.6793   -2.8367   -2.3071 H   0  0  0  0  0  0
    1.1145   -0.7316    1.8575 H   0  0  0  0  0  0
    0.8974   -0.8845   -2.4474 H   0  0  0  0  0  0
   -4.9821   -0.1300   -1.8381 H   0  0  0  0  0  0
   -3.8889   -1.9863   -3.0470 H   0  0  0  0  0  0
    2.9044    0.9698    1.7092 H   0  0  0  0  0  0
    2.6724    0.8259   -2.5999 H   0  0  0  0  0  0
   -5.7627    1.8512    1.1492 H   0  0  0  0  0  0
   -5.9897    0.5870   -0.0083 H   0  0  0  0  0  0
    7.0309    2.4024   -1.8963 H   0  0  0  0  0  0
    5.9013    3.6539   -1.4933 H   0  0  0  0  0  0
    6.6504    0.1570   -1.0056 H   0  0  0  0  0  0
    5.0294   -0.4245   -0.9122 H   0  0  0  0  0  0
   -6.4336   -0.2283    2.3077 H   0  0  0  0  0  0
   -5.0789   -1.1086    1.6129 H   0  0  0  0  0  0
   -4.7884    0.1692    2.7904 H   0  0  0  0  0  0
   -3.9663    2.3709    2.6824 H   0  0  0  0  0  0
   -2.5564    2.5319   -1.4045 H   0  0  0  0  0  0
    7.8334    3.6356    0.0937 H   0  0  0  0  0  0
    6.3541    3.2678    0.9709 H   0  0  0  0  0  0
    7.4760    1.9743    0.5516 H   0  0  0  0  0  0
    5.9727   -0.9175   -3.1443 H   0  0  0  0  0  0
    4.6763    0.2468   -3.3595 H   0  0  0  0  0  0
    6.3512    0.7751   -3.4202 H   0  0  0  0  0  0
   -2.8179    4.5023    3.1539 H   0  0  0  0  0  0
   -1.4034    4.6628   -0.9112 H   0  0  0  0  0  0
   -1.5297    5.6575    1.3662 H   0  0  0  0  0  0
    0.2835   -5.3680    2.1863 N   0  3  0  0  0  0
    0.2657   -5.7153    3.1348 H   0  0  0  0  0  0
    0.5000   -6.1343    1.5647 H   0  0  0  0  0  0
  1 24  2  0  0  0
  2 13  1  0  0  0
  2 22  1  0  0  0
  2 23  1  0  0  0
  3 24  1  0  0  0
  3 25  1  0  0  0
  3 26  1  0  0  0
  4  5  1  0  0  0
  4  6  1  0  0  0
  4  9  2  0  0  0
  5  7  1  0  0  0
  5 35  1  0  0  0
  5 36  1  0  0  0
  6  8  1  0  0  0
  6 37  1  0  0  0
  6 38  1  0  0  0
  7 39  1  0  0  0
  7 40  1  0  0  0
  7 71  1  0  0  0
  8 41  1  0  0  0
  8 42  1  0  0  0
  8 71  1  0  0  0
  9 10  1  0  0  0
  9 11  1  0  0  0
 10 12  2  0  0  0
 10 14  1  0  0  0
 11 15  2  0  0  0
 11 16  1  0  0  0
 12 13  1  0  0  0
 12 43  1  0  0  0
 13 18  2  0  0  0
 14 19  2  0  0  0
 14 44  1  0  0  0
 15 20  1  0  0  0
 15 45  1  0  0  0
 16 21  2  0  0  0
 16 46  1  0  0  0
 17 20  2  0  0  0
 17 21  1  0  0  0
 17 24  1  0  0  0
 18 19  1  0  0  0
 18 47  1  0  0  0
 19 48  1  0  0  0
 20 49  1  0  0  0
 21 50  1  0  0  0
 22 27  1  0  0  0
 22 51  1  0  0  0
 22 52  1  0  0  0
 23 28  2  0  0  0
 23 29  1  0  0  0
 25 30  1  0  0  0
 25 53  1  0  0  0
 25 54  1  0  0  0
 26 31  1  0  0  0
 26 55  1  0  0  0
 26 56  1  0  0  0
 27 57  1  0  0  0
 27 58  1  0  0  0
 27 59  1  0  0  0
 28 32  1  0  0  0
 28 60  1  0  0  0
 29 33  2  0  0  0
 29 61  1  0  0  0
 30 62  1  0  0  0
 30 63  1  0  0  0
 30 64  1  0  0  0
 31 65  1  0  0  0
 31 66  1  0  0  0
 31 67  1  0  0  0
 32 34  2  0  0  0
 32 68  1  0  0  0
 33 34  1  0  0  0
 33 69  1  0  0  0
 34 70  1  0  0  0
 71 72  1  0  0  0
 71 73  1  0  0  0
M  CHG  1  71   1
M  END
> <LID>
L022981

> <PC_CID>
10479725

> <Names>


> <CAS_Numbers>


$$$$
9890205
                    3D
 Structure written by MMmdl.
 69 72  0  0  1  0            999 V2000
    3.6737   -0.5303    0.2176 O   0  0  0  0  0  0
   -3.9550   -3.2974    0.0735 O   0  0  0  0  0  0
   -5.6148   -1.8898    0.7468 N   0  0  0  0  0  0
   -0.6772    3.2986   -0.5222 C   0  0  0  0  0  0
    0.3448    4.4225   -0.6817 C   0  0  0  0  0  0
   -2.0226    3.6757   -1.1393 C   0  0  0  0  0  0
    0.4559    4.8668   -2.1510 C   0  0  0  0  0  0
   -1.8569    4.1257   -2.6001 C   0  0  0  0  0  0
   -0.4193    2.1100    0.0824 C   0  0  0  0  0  0
   -1.4292    1.0412    0.1520 C   0  0  0  0  0  0
    0.8798    1.8202    0.7132 C   0  0  0  0  0  0
   -1.8048    0.3328   -1.0097 C   0  0  0  0  0  0
   -1.9928    0.6789    1.3931 C   0  0  0  0  0  0
    1.7017    0.7949    0.1995 C   0  0  0  0  0  0
    1.2984    2.5300    1.8581 C   0  0  0  0  0  0
   -3.3474   -1.0391    0.2995 C   0  0  0  0  0  0
   -2.7558   -0.7028   -0.9363 C   0  0  0  0  0  0
   -2.9438   -0.3568    1.4681 C   0  0  0  0  0  0
    2.9400    0.4827    0.7967 C   0  0  0  0  0  0
    2.5316    2.2304    2.4651 C   0  0  0  0  0  0
   -4.3389   -2.1648    0.3678 C   0  0  0  0  0  0
    3.3515    1.2142    1.9388 C   0  0  0  0  0  0
   -6.5986   -2.9716    0.8998 C   0  0  0  0  0  0
   -6.1658   -0.5383    0.9412 C   0  0  0  0  0  0
    4.9250   -0.8757    0.7987 C   0  0  0  0  0  0
   -6.5505   -3.5743    2.3108 C   0  0  0  0  0  0
   -6.5249    0.1263   -0.3960 C   0  0  0  0  0  0
    5.5965   -2.0181    0.0597 C   0  0  0  0  0  0
    6.9986   -2.0307   -0.0996 C   0  0  0  0  0  0
    4.8292   -3.0914   -0.4419 C   0  0  0  0  0  0
    7.6263   -3.0992   -0.7694 C   0  0  0  0  0  0
    5.4572   -4.1597   -1.1116 C   0  0  0  0  0  0
    6.8557   -4.1631   -1.2770 C   0  0  0  0  0  0
    1.3349    4.1400   -0.3280 H   0  0  0  0  0  0
    0.0262    5.2630   -0.0639 H   0  0  0  0  0  0
   -2.4398    4.4951   -0.5526 H   0  0  0  0  0  0
   -2.7554    2.8726   -1.0840 H   0  0  0  0  0  0
    0.8931    4.0674   -2.7512 H   0  0  0  0  0  0
    1.1201    5.7271   -2.2367 H   0  0  0  0  0  0
   -1.5335    3.2863   -3.2175 H   0  0  0  0  0  0
   -2.8114    4.4669   -3.0016 H   0  0  0  0  0  0
   -1.3617    0.5832   -1.9626 H   0  0  0  0  0  0
   -1.6952    1.1959    2.2939 H   0  0  0  0  0  0
    1.3806    0.2380   -0.6690 H   0  0  0  0  0  0
    0.6733    3.3073    2.2730 H   0  0  0  0  0  0
   -3.0330   -1.2359   -1.8344 H   0  0  0  0  0  0
   -3.3615   -0.6259    2.4278 H   0  0  0  0  0  0
    2.8491    2.7798    3.3392 H   0  0  0  0  0  0
    4.2900    1.0130    2.4323 H   0  0  0  0  0  0
   -7.6042   -2.6001    0.6976 H   0  0  0  0  0  0
   -6.4368   -3.7551    0.1575 H   0  0  0  0  0  0
   -7.0617   -0.5909    1.5614 H   0  0  0  0  0  0
   -5.4892    0.1002    1.5050 H   0  0  0  0  0  0
    5.5869   -0.0080    0.7897 H   0  0  0  0  0  0
    4.7862   -1.1842    1.8360 H   0  0  0  0  0  0
   -7.2942   -4.3638    2.4198 H   0  0  0  0  0  0
   -5.5733   -4.0088    2.5235 H   0  0  0  0  0  0
   -6.7545   -2.8188    3.0701 H   0  0  0  0  0  0
   -6.9689    1.1082   -0.2317 H   0  0  0  0  0  0
   -5.6453    0.2646   -1.0249 H   0  0  0  0  0  0
   -7.2447   -0.4735   -0.9537 H   0  0  0  0  0  0
    7.5979   -1.2209    0.2903 H   0  0  0  0  0  0
    3.7565   -3.0989   -0.3146 H   0  0  0  0  0  0
    8.6994   -3.1035   -0.8923 H   0  0  0  0  0  0
    4.8660   -4.9774   -1.4967 H   0  0  0  0  0  0
    7.3373   -4.9826   -1.7899 H   0  0  0  0  0  0
   -0.8676    5.2195   -2.7089 N   0  3  0  0  0  0
   -0.7585    5.4691   -3.6818 H   0  0  0  0  0  0
   -1.2220    6.0210   -2.2066 H   0  0  0  0  0  0
  1 19  1  0  0  0
  1 25  1  0  0  0
  2 21  2  0  0  0
  3 21  1  0  0  0
  3 23  1  0  0  0
  3 24  1  0  0  0
  4  5  1  0  0  0
  4  6  1  0  0  0
  4  9  2  0  0  0
  5  7  1  0  0  0
  5 34  1  0  0  0
  5 35  1  0  0  0
  6  8  1  0  0  0
  6 36  1  0  0  0
  6 37  1  0  0  0
  7 38  1  0  0  0
  7 39  1  0  0  0
  7 67  1  0  0  0
  8 40  1  0  0  0
  8 41  1  0  0  0
  8 67  1  0  0  0
  9 10  1  0  0  0
  9 11  1  0  0  0
 10 12  2  0  0  0
 10 13  1  0  0  0
 11 14  2  0  0  0
 11 15  1  0  0  0
 12 17  1  0  0  0
 12 42  1  0  0  0
 13 18  2  0  0  0
 13 43  1  0  0  0
 14 19  1  0  0  0
 14 44  1  0  0  0
 15 20  2  0  0  0
 15 45  1  0  0  0
 16 17  2  0  0  0
 16 18  1  0  0  0
 16 21  1  0  0  0
 17 46  1  0  0  0
 18 47  1  0  0  0
 19 22  2  0  0  0
 20 22  1  0  0  0
 20 48  1  0  0  0
 22 49  1  0  0  0
 23 26  1  0  0  0
 23 50  1  0  0  0
 23 51  1  0  0  0
 24 27  1  0  0  0
 24 52  1  0  0  0
 24 53  1  0  0  0
 25 28  1  0  0  0
 25 54  1  0  0  0
 25 55  1  0  0  0
 26 56  1  0  0  0
 26 57  1  0  0  0
 26 58  1  0  0  0
 27 59  1  0  0  0
 27 60  1  0  0  0
 27 61  1  0  0  0
 28 29  2  0  0  0
 28 30  1  0  0  0
 29 31  1  0  0  0
 29 62  1  0  0  0
 30 32  2  0  0  0
 30 63  1  0  0  0
 31 33  2  0  0  0
 31 64  1  0  0  0
 32 33  1  0  0  0
 32 65  1  0  0  0
 33 66  1  0  0  0
 67 68  1  0  0  0
 67 69  1  0  0  0
M  CHG  1  67   1
M  END
> <LID>
L023450

> <PC_CID>
9890205

> <Names>


> <CAS_Numbers>


$$$$
12988887
                    3D
 Structure written by MMmdl.
 62 65  0  0  1  0            999 V2000
   -2.2445  -13.2389    7.1826 O   0  0  0  0  0  0
   -0.7202  -13.6221    1.0290 N   0  0  0  0  0  0
   -2.0433  -11.0047    6.7857 N   0  0  0  0  0  0
   -0.0159  -12.6306    0.1993 C   0  0  0  0  0  0
    1.3649  -12.2341    0.7651 C   0  0  0  0  0  0
   -0.8505  -11.3608   -0.0677 C   0  0  0  0  0  0
    2.0762  -11.2452   -0.1740 C   0  0  0  0  0  0
   -0.0909  -10.3931   -0.9908 C   0  0  0  0  0  0
   -0.9060  -14.8585    0.5096 C   0  0  0  0  0  0
   -1.0358  -13.3049    2.3054 C   0  0  0  0  0  0
    0.1804  -15.6018   -0.0070 C   0  0  0  0  0  0
   -2.2011  -15.4220    0.4798 C   0  0  0  0  0  0
   -0.1627  -13.6556    3.3573 C   0  0  0  0  0  0
   -2.2452  -12.6408    2.6035 C   0  0  0  0  0  0
   -0.0243  -16.8881   -0.5468 C   0  0  0  0  0  0
   -1.3274  -17.4433   -0.5732 C   0  0  0  0  0  0
   -2.4119  -16.7059   -0.0582 C   0  0  0  0  0  0
   -0.4850  -13.3288    4.6885 C   0  0  0  0  0  0
   -2.5678  -12.3136    3.9343 C   0  0  0  0  0  0
   -1.6804  -12.6398    4.9821 C   0  0  0  0  0  0
    1.0629  -17.6256   -1.0602 C   0  0  0  0  0  0
   -2.0179  -12.3097    6.4068 C   0  0  0  0  0  0
   -1.5321  -18.7300   -1.1132 C   0  0  0  0  0  0
    0.8529  -18.9102   -1.5984 C   0  0  0  0  0  0
   -0.4427  -19.4616   -1.6251 C   0  0  0  0  0  0
   -2.3851  -10.6390    8.1685 C   0  0  0  0  0  0
   -1.6231   -9.8706    5.9451 C   0  0  0  0  0  0
   -1.1824  -10.7839    9.1140 C   0  0  0  0  0  0
   -2.8170   -9.0768    5.3903 C   0  0  0  0  0  0
    0.1599  -13.0830   -0.7783 H   0  0  0  0  0  0
    1.9866  -13.1188    0.9044 H   0  0  0  0  0  0
    1.2551  -11.7746    1.7483 H   0  0  0  0  0  0
   -1.8060  -11.6285   -0.5203 H   0  0  0  0  0  0
   -1.0788  -10.8485    0.8674 H   0  0  0  0  0  0
    2.3078  -11.7262   -1.1255 H   0  0  0  0  0  0
    3.0241  -10.9267    0.2604 H   0  0  0  0  0  0
   -0.6640   -9.4762   -1.1308 H   0  0  0  0  0  0
    0.0445  -10.8377   -1.9778 H   0  0  0  0  0  0
    1.1781  -15.1888    0.0153 H   0  0  0  0  0  0
   -3.0442  -14.8693    0.8679 H   0  0  0  0  0  0
    0.7589  -14.1780    3.1452 H   0  0  0  0  0  0
   -2.9340  -12.3860    1.8113 H   0  0  0  0  0  0
   -3.4096  -17.1202   -0.0733 H   0  0  0  0  0  0
    0.1931  -13.6044    5.4834 H   0  0  0  0  0  0
   -3.5068  -11.8249    4.1458 H   0  0  0  0  0  0
    2.0604  -17.2111   -1.0439 H   0  0  0  0  0  0
   -2.5225  -19.1609   -1.1372 H   0  0  0  0  0  0
    1.6868  -19.4734   -1.9911 H   0  0  0  0  0  0
   -0.6013  -20.4469   -2.0381 H   0  0  0  0  0  0
   -3.2167  -11.2478    8.5280 H   0  0  0  0  0  0
   -2.7449   -9.6106    8.2089 H   0  0  0  0  0  0
   -1.0040   -9.2014    6.5442 H   0  0  0  0  0  0
   -0.9749  -10.1831    5.1263 H   0  0  0  0  0  0
   -1.4519  -10.4887   10.1282 H   0  0  0  0  0  0
   -0.8267  -11.8137    9.1552 H   0  0  0  0  0  0
   -0.3505  -10.1547    8.7967 H   0  0  0  0  0  0
   -2.4705   -8.2432    4.7793 H   0  0  0  0  0  0
   -3.4628   -9.6916    4.7665 H   0  0  0  0  0  0
   -3.4303   -8.6609    6.1894 H   0  0  0  0  0  0
    1.2324  -10.0550   -0.4212 N   0  3  0  0  0  0
    1.7154   -9.4358   -1.0569 H   0  0  0  0  0  0
    1.0910   -9.5737    0.4557 H   0  0  0  0  0  0
  1 22  2  0  0  0
  2  4  1  0  0  0
  2  9  1  0  0  0
  2 10  1  0  0  0
  3 22  1  0  0  0
  3 26  1  0  0  0
  3 27  1  0  0  0
  4  5  1  0  0  0
  4  6  1  0  0  0
  4 30  1  0  0  0
  5  7  1  0  0  0
  5 31  1  0  0  0
  5 32  1  0  0  0
  6  8  1  0  0  0
  6 33  1  0  0  0
  6 34  1  0  0  0
  7 35  1  0  0  0
  7 36  1  0  0  0
  7 60  1  0  0  0
  8 37  1  0  0  0
  8 38  1  0  0  0
  8 60  1  0  0  0
  9 11  2  0  0  0
  9 12  1  0  0  0
 10 13  2  0  0  0
 10 14  1  0  0  0
 11 15  1  0  0  0
 11 39  1  0  0  0
 12 17  2  0  0  0
 12 40  1  0  0  0
 13 18  1  0  0  0
 13 41  1  0  0  0
 14 19  2  0  0  0
 14 42  1  0  0  0
 15 16  1  0  0  0
 15 21  2  0  0  0
 16 17  1  0  0  0
 16 23  2  0  0  0
 17 43  1  0  0  0
 18 20  2  0  0  0
 18 44  1  0  0  0
 19 20  1  0  0  0
 19 45  1  0  0  0
 20 22  1  0  0  0
 21 24  1  0  0  0
 21 46  1  0  0  0
 23 25  1  0  0  0
 23 47  1  0  0  0
 24 25  2  0  0  0
 24 48  1  0  0  0
 25 49  1  0  0  0
 26 28  1  0  0  0
 26 50  1  0  0  0
 26 51  1  0  0  0
 27 29  1  0  0  0
 27 52  1  0  0  0
 27 53  1  0  0  0
 28 54  1  0  0  0
 28 55  1  0  0  0
 28 56  1  0  0  0
 29 57  1  0  0  0
 29 58  1  0  0  0
 29 59  1  0  0  0
 60 61  1  0  0  0
 60 62  1  0  0  0
M  CHG  1  60   1
M  END
> <LID>
L018210

> <PC_CID>
12988887

> <Names>


> <CAS_Numbers>


$$$$
12988884
                    3D
 Structure written by MMmdl.
 75 79  0  0  1  0            999 V2000
   -1.5469   -8.7674   -2.5463 O   0  0  0  0  0  0
   -0.6236   -7.0662    3.5034 N   0  0  0  0  0  0
   -1.1251   -6.5596   -2.9168 N   0  0  0  0  0  0
    0.1105   -5.8999    4.0216 C   0  0  0  0  0  0
   -0.5912   -4.5612    3.7255 C   0  0  0  0  0  0
    1.5685   -5.8296    3.5265 C   0  0  0  0  0  0
    0.1847   -3.3894    4.3486 C   0  0  0  0  0  0
    2.3020   -4.6297    4.1483 C   0  0  0  0  0  0
    2.3145   -2.1524    4.3445 C   0  0  0  0  0  0
   -0.9908   -8.0226    4.3887 C   0  0  0  0  0  0
   -0.7875   -7.1982    2.1673 C   0  0  0  0  0  0
    3.5941   -1.9029    3.5657 C   0  0  0  0  0  0
   -2.3368   -8.4487    4.4459 C   0  0  0  0  0  0
   -0.0458   -8.6079    5.2625 C   0  0  0  0  0  0
   -1.8842   -6.5955    1.5142 C   0  0  0  0  0  0
    0.1312   -7.9606    1.4144 C   0  0  0  0  0  0
   -2.7357   -9.4431    5.3623 C   0  0  0  0  0  0
    3.5348   -1.3387    2.2736 C   0  0  0  0  0  0
    4.8470   -2.2292    4.1279 C   0  0  0  0  0  0
   -0.4381   -9.6016    6.1797 C   0  0  0  0  0  0
   -1.7816  -10.0228    6.2343 C   0  0  0  0  0  0
   -2.0488   -6.7363    0.1231 C   0  0  0  0  0  0
   -0.0332   -8.1020    0.0232 C   0  0  0  0  0  0
   -1.1135   -7.4753   -0.6326 C   0  0  0  0  0  0
    4.7191   -1.1082    1.5470 C   0  0  0  0  0  0
    6.0307   -1.9986    3.4003 C   0  0  0  0  0  0
   -4.0810   -9.8636    5.4151 C   0  0  0  0  0  0
   -2.1805  -11.0176    7.1509 C   0  0  0  0  0  0
   -1.2837   -7.6447   -2.1141 C   0  0  0  0  0  0
    5.9670   -1.4387    2.1098 C   0  0  0  0  0  0
   -4.4742  -10.8574    6.3326 C   0  0  0  0  0  0
   -3.5253  -11.4336    7.1992 C   0  0  0  0  0  0
   -1.2996   -6.6799   -4.3721 C   0  0  0  0  0  0
   -0.6530   -5.2378   -2.4702 C   0  0  0  0  0  0
   -0.0429   -7.2409   -5.0558 C   0  0  0  0  0  0
   -1.7923   -4.2108   -2.3691 C   0  0  0  0  0  0
    0.1460   -5.9864    5.1090 H   0  0  0  0  0  0
   -0.6707   -4.3984    2.6502 H   0  0  0  0  0  0
   -1.6092   -4.5780    4.1166 H   0  0  0  0  0  0
    1.5978   -5.7391    2.4400 H   0  0  0  0  0  0
    2.0975   -6.7501    3.7749 H   0  0  0  0  0  0
    0.1752   -3.4676    5.4371 H   0  0  0  0  0  0
   -0.3162   -2.4545    4.0940 H   0  0  0  0  0  0
    2.3945   -4.7641    5.2272 H   0  0  0  0  0  0
    3.3147   -4.5947    3.7468 H   0  0  0  0  0  0
    1.6827   -1.2701    4.2317 H   0  0  0  0  0  0
    2.5283   -2.2452    5.4106 H   0  0  0  0  0  0
   -3.0695   -8.0084    3.7851 H   0  0  0  0  0  0
    0.9899   -8.3040    5.2316 H   0  0  0  0  0  0
   -2.6079   -6.0276    2.0805 H   0  0  0  0  0  0
    0.9665   -8.4403    1.9037 H   0  0  0  0  0  0
    2.5817   -1.0812    1.8348 H   0  0  0  0  0  0
    4.9055   -2.6597    5.1171 H   0  0  0  0  0  0
    0.2977  -10.0390    6.8388 H   0  0  0  0  0  0
   -2.9047   -6.2861   -0.3564 H   0  0  0  0  0  0
    0.6781   -8.6892   -0.5399 H   0  0  0  0  0  0
    4.6708   -0.6770    0.5578 H   0  0  0  0  0  0
    6.9881   -2.2507    3.8323 H   0  0  0  0  0  0
   -4.8158   -9.4275    4.7540 H   0  0  0  0  0  0
   -1.4593  -11.4652    7.8193 H   0  0  0  0  0  0
    6.8751   -1.2614    1.5523 H   0  0  0  0  0  0
   -5.5049  -11.1782    6.3713 H   0  0  0  0  0  0
   -3.8292  -12.1957    7.9018 H   0  0  0  0  0  0
   -2.1607   -7.3105   -4.6007 H   0  0  0  0  0  0
   -1.5339   -5.7073   -4.8056 H   0  0  0  0  0  0
   -0.1181   -5.2907   -1.5218 H   0  0  0  0  0  0
    0.0880   -4.8719   -3.1822 H   0  0  0  0  0  0
   -0.1863   -7.3026   -6.1347 H   0  0  0  0  0  0
    0.8246   -6.6062   -4.8734 H   0  0  0  0  0  0
    0.1944   -8.2432   -4.6982 H   0  0  0  0  0  0
   -2.5551   -4.5149   -1.6551 H   0  0  0  0  0  0
   -1.4075   -3.2443   -2.0435 H   0  0  0  0  0  0
   -2.2831   -4.0581   -3.3302 H   0  0  0  0  0  0
    1.5889   -3.3549    3.8636 N   0  3  0  0  0  0
    1.5395   -3.2691    2.8583 H   0  0  0  0  0  0
  1 29  2  0  0  0
  2  4  1  0  0  0
  2 10  1  0  0  0
  2 11  1  0  0  0
  3 29  1  0  0  0
  3 33  1  0  0  0
  3 34  1  0  0  0
  4  5  1  0  0  0
  4  6  1  0  0  0
  4 37  1  0  0  0
  5  7  1  0  0  0
  5 38  1  0  0  0
  5 39  1  0  0  0
  6  8  1  0  0  0
  6 40  1  0  0  0
  6 41  1  0  0  0
  7 42  1  0  0  0
  7 43  1  0  0  0
  7 74  1  0  0  0
  8 44  1  0  0  0
  8 45  1  0  0  0
  8 74  1  0  0  0
  9 12  1  0  0  0
  9 46  1  0  0  0
  9 47  1  0  0  0
  9 74  1  0  0  0
 10 13  2  0  0  0
 10 14  1  0  0  0
 11 15  2  0  0  0
 11 16  1  0  0  0
 12 18  2  0  0  0
 12 19  1  0  0  0
 13 17  1  0  0  0
 13 48  1  0  0  0
 14 20  2  0  0  0
 14 49  1  0  0  0
 15 22  1  0  0  0
 15 50  1  0  0  0
 16 23  2  0  0  0
 16 51  1  0  0  0
 17 21  1  0  0  0
 17 27  2  0  0  0
 18 25  1  0  0  0
 18 52  1  0  0  0
 19 26  2  0  0  0
 19 53  1  0  0  0
 20 21  1  0  0  0
 20 54  1  0  0  0
 21 28  2  0  0  0
 22 24  2  0  0  0
 22 55  1  0  0  0
 23 24  1  0  0  0
 23 56  1  0  0  0
 24 29  1  0  0  0
 25 30  2  0  0  0
 25 57  1  0  0  0
 26 30  1  0  0  0
 26 58  1  0  0  0
 27 31  1  0  0  0
 27 59  1  0  0  0
 28 32  1  0  0  0
 28 60  1  0  0  0
 30 61  1  0  0  0
 31 32  2  0  0  0
 31 62  1  0  0  0
 32 63  1  0  0  0
 33 35  1  0  0  0
 33 64  1  0  0  0
 33 65  1  0  0  0
 34 36  1  0  0  0
 34 66  1  0  0  0
 34 67  1  0  0  0
 35 68  1  0  0  0
 35 69  1  0  0  0
 35 70  1  0  0  0
 36 71  1  0  0  0
 36 72  1  0  0  0
 36 73  1  0  0  0
 74 75  1  0  0  0
M  CHG  1  74   1
M  END
> <LID>
L018207

> <PC_CID>
12988884

> <Names>


> <CAS_Numbers>


$$$$
12988885
                    3D
 Structure written by MMmdl.
 56 58  0  0  1  0            999 V2000
    6.8238   -8.3733    0.7757 O   0  0  0  0  0  0
   10.9798   -3.6380   -0.0105 N   0  0  0  0  0  0
    8.7177   -9.6396    0.7829 N   0  0  0  0  0  0
   10.2840   -2.4444   -0.5197 C   0  0  0  0  0  0
    9.6853   -2.6434   -1.9290 C   0  0  0  0  0  0
    9.1925   -1.9234    0.4383 C   0  0  0  0  0  0
    9.0260   -1.3475   -2.4305 C   0  0  0  0  0  0
    8.5469   -0.6419   -0.1152 C   0  0  0  0  0  0
   10.2808   -4.7837    0.1582 C   0  0  0  0  0  0
   12.3229   -3.5658    0.1449 C   0  0  0  0  0  0
    9.5919   -5.0355    1.3643 C   0  0  0  0  0  0
   10.2408   -5.7454   -0.8741 C   0  0  0  0  0  0
   13.1583   -3.1394   -0.9139 C   0  0  0  0  0  0
   12.9096   -3.9215    1.3805 C   0  0  0  0  0  0
    8.8676   -6.2310    1.5337 C   0  0  0  0  0  0
    9.5171   -6.9413   -0.7050 C   0  0  0  0  0  0
    8.8387   -7.1968    0.5059 C   0  0  0  0  0  0
   14.5540   -3.0689   -0.7382 C   0  0  0  0  0  0
   14.3052   -3.8506    1.5560 C   0  0  0  0  0  0
    8.0496   -8.4594    0.6941 C   0  0  0  0  0  0
   15.1281   -3.4240    0.4968 C   0  0  0  0  0  0
    7.9798  -10.9002    0.9538 C   0  0  0  0  0  0
   10.1822   -9.7805    0.8508 C   0  0  0  0  0  0
    7.5775  -11.1350    2.4183 C   0  0  0  0  0  0
   10.7878  -10.2603   -0.4782 C   0  0  0  0  0  0
   11.0192   -1.6415   -0.5979 H   0  0  0  0  0  0
    8.9397   -3.4394   -1.9162 H   0  0  0  0  0  0
   10.4599   -2.9556   -2.6299 H   0  0  0  0  0  0
    9.6202   -1.7256    1.4219 H   0  0  0  0  0  0
    8.4156   -2.6753    0.5793 H   0  0  0  0  0  0
    9.7778   -0.5693   -2.5699 H   0  0  0  0  0  0
    8.5564   -1.5134   -3.4004 H   0  0  0  0  0  0
    7.7410   -0.3112    0.5405 H   0  0  0  0  0  0
    9.2787    0.1663   -0.1526 H   0  0  0  0  0  0
    9.6163   -4.3107    2.1650 H   0  0  0  0  0  0
   10.7607   -5.5645   -1.8036 H   0  0  0  0  0  0
   12.7362   -2.8697   -1.8704 H   0  0  0  0  0  0
   12.2910   -4.2483    2.2036 H   0  0  0  0  0  0
    8.3408   -6.4075    2.4605 H   0  0  0  0  0  0
    9.4766   -7.6537   -1.5150 H   0  0  0  0  0  0
   15.1845   -2.7437   -1.5526 H   0  0  0  0  0  0
   14.7442   -4.1237    2.5043 H   0  0  0  0  0  0
   16.1985   -3.3702    0.6313 H   0  0  0  0  0  0
    7.0928  -10.9106    0.3178 H   0  0  0  0  0  0
    8.5854  -11.7408    0.6143 H   0  0  0  0  0  0
   10.6703   -8.8587    1.1674 H   0  0  0  0  0  0
   10.4288  -10.5024    1.6306 H   0  0  0  0  0  0
    7.0507  -12.0832    2.5258 H   0  0  0  0  0  0
    8.4516  -11.1668    3.0692 H   0  0  0  0  0  0
    6.9165  -10.3486    2.7834 H   0  0  0  0  0  0
   11.8699  -10.3590   -0.3910 H   0  0  0  0  0  0
   10.3953  -11.2339   -0.7714 H   0  0  0  0  0  0
   10.5886   -9.5666   -1.2925 H   0  0  0  0  0  0
    8.0035   -0.8727   -1.4721 N   0  3  0  0  0  0
    7.2729   -1.5679   -1.4113 H   0  0  0  0  0  0
    7.6038   -0.0114   -1.8172 H   0  0  0  0  0  0
  1 20  2  0  0  0
  2  4  1  0  0  0
  2  9  1  0  0  0
  2 10  1  0  0  0
  3 20  1  0  0  0
  3 22  1  0  0  0
  3 23  1  0  0  0
  4  5  1  0  0  0
  4  6  1  0  0  0
  4 26  1  0  0  0
  5  7  1  0  0  0
  5 27  1  0  0  0
  5 28  1  0  0  0
  6  8  1  0  0  0
  6 29  1  0  0  0
  6 30  1  0  0  0
  7 31  1  0  0  0
  7 32  1  0  0  0
  7 54  1  0  0  0
  8 33  1  0  0  0
  8 34  1  0  0  0
  8 54  1  0  0  0
  9 11  2  0  0  0
  9 12  1  0  0  0
 10 13  2  0  0  0
 10 14  1  0  0  0
 11 15  1  0  0  0
 11 35  1  0  0  0
 12 16  2  0  0  0
 12 36  1  0  0  0
 13 18  1  0  0  0
 13 37  1  0  0  0
 14 19  2  0  0  0
 14 38  1  0  0  0
 15 17  2  0  0  0
 15 39  1  0  0  0
 16 17  1  0  0  0
 16 40  1  0  0  0
 17 20  1  0  0  0
 18 21  2  0  0  0
 18 41  1  0  0  0
 19 21  1  0  0  0
 19 42  1  0  0  0
 21 43  1  0  0  0
 22 24  1  0  0  0
 22 44  1  0  0  0
 22 45  1  0  0  0
 23 25  1  0  0  0
 23 46  1  0  0  0
 23 47  1  0  0  0
 24 48  1  0  0  0
 24 49  1  0  0  0
 24 50  1  0  0  0
 25 51  1  0  0  0
 25 52  1  0  0  0
 25 53  1  0  0  0
 54 55  1  0  0  0
 54 56  1  0  0  0
M  CHG  1  54   1
M  END
> <LID>
L018208

> <PC_CID>
12988885

> <Names>


> <CAS_Numbers>


$$$$
12988882
                    3D
 Structure written by MMmdl.
 72 75  0  0  1  0            999 V2000
    5.6669    2.4702    1.1814 O   0  0  0  0  0  0
    0.0278   -0.2027   -0.0398 N   0  0  0  0  0  0
    6.3046    0.3006    1.4554 N   0  0  0  0  0  0
   -0.7397   -0.9105    1.0047 C   0  0  0  0  0  0
   -1.4142   -2.2172    0.5237 C   0  0  0  0  0  0
   -1.7239    0.0025    1.7817 C   0  0  0  0  0  0
   -2.7827   -2.0353   -0.1754 C   0  0  0  0  0  0
   -3.2040   -0.3809    1.6006 C   0  0  0  0  0  0
   -4.9070   -0.7752   -0.1699 C   0  0  0  0  0  0
    1.3025    0.1506    0.2549 C   0  0  0  0  0  0
   -0.5942    0.2070   -1.1693 C   0  0  0  0  0  0
   -5.4271    0.6311   -0.4048 C   0  0  0  0  0  0
    2.3511   -0.1892   -0.6288 C   0  0  0  0  0  0
    1.6094    0.8649    1.4360 C   0  0  0  0  0  0
   -0.6347   -0.6308   -2.3052 C   0  0  0  0  0  0
   -1.1940    1.4839   -1.2334 C   0  0  0  0  0  0
   -6.1512    1.3065    0.6007 C   0  0  0  0  0  0
   -5.1880    1.2695   -1.6399 C   0  0  0  0  0  0
    3.6806    0.1696   -0.3352 C   0  0  0  0  0  0
    2.9387    1.2246    1.7298 C   0  0  0  0  0  0
   -1.2940   -0.2119   -3.4767 C   0  0  0  0  0  0
   -1.8490    1.9054   -2.4059 C   0  0  0  0  0  0
    3.9840    0.8642    0.8547 C   0  0  0  0  0  0
   -1.9086    1.0553   -3.5281 C   0  0  0  0  0  0
   -6.6214    2.6150    0.3755 C   0  0  0  0  0  0
   -5.6569    2.5781   -1.8643 C   0  0  0  0  0  0
    5.3939    1.2692    1.1729 C   0  0  0  0  0  0
   -6.3728    3.2516   -0.8559 C   0  0  0  0  0  0
   -2.6215    1.5064   -4.7859 C   0  0  0  0  0  0
    7.6984    0.6578    1.7597 C   0  0  0  0  0  0
    5.9966   -1.1304    1.6186 C   0  0  0  0  0  0
    7.8703    1.1048    3.2199 C   0  0  0  0  0  0
    6.4331   -1.9674    0.4052 C   0  0  0  0  0  0
   -0.0004   -1.2443    1.7353 H   0  0  0  0  0  0
   -1.5835   -2.8318    1.4091 H   0  0  0  0  0  0
   -0.7371   -2.8014   -0.1005 H   0  0  0  0  0  0
   -1.5817    1.0466    1.5075 H   0  0  0  0  0  0
   -1.4878   -0.0386    2.8455 H   0  0  0  0  0  0
   -3.4172   -2.8865    0.0770 H   0  0  0  0  0  0
   -2.6686   -2.0586   -1.2585 H   0  0  0  0  0  0
   -3.4711   -1.2088    2.2595 H   0  0  0  0  0  0
   -3.8240    0.4646    1.8973 H   0  0  0  0  0  0
   -5.0503   -1.3368   -1.0947 H   0  0  0  0  0  0
   -5.4939   -1.2849    0.5960 H   0  0  0  0  0  0
    2.1424   -0.7268   -1.5420 H   0  0  0  0  0  0
    0.8277    1.1514    2.1234 H   0  0  0  0  0  0
   -0.1671   -1.6043   -2.2777 H   0  0  0  0  0  0
   -1.1498    2.1531   -0.3872 H   0  0  0  0  0  0
   -6.3460    0.8262    1.5486 H   0  0  0  0  0  0
   -4.6413    0.7585   -2.4190 H   0  0  0  0  0  0
    4.4622   -0.0801   -1.0364 H   0  0  0  0  0  0
    3.1533    1.7750    2.6346 H   0  0  0  0  0  0
   -1.3250   -0.8664   -4.3357 H   0  0  0  0  0  0
   -2.3070    2.8832   -2.4398 H   0  0  0  0  0  0
   -7.1731    3.1309    1.1476 H   0  0  0  0  0  0
   -5.4680    3.0647   -2.8100 H   0  0  0  0  0  0
   -6.7333    4.2553   -1.0278 H   0  0  0  0  0  0
   -3.4408    2.1850   -4.5461 H   0  0  0  0  0  0
   -1.9268    2.0255   -5.4464 H   0  0  0  0  0  0
   -3.0371    0.6542   -5.3245 H   0  0  0  0  0  0
    8.3557   -0.1912    1.5704 H   0  0  0  0  0  0
    8.0449    1.4440    1.0864 H   0  0  0  0  0  0
    6.5131   -1.5007    2.5051 H   0  0  0  0  0  0
    4.9404   -1.3034    1.8254 H   0  0  0  0  0  0
    8.9129    1.3447    3.4292 H   0  0  0  0  0  0
    7.2783    1.9936    3.4394 H   0  0  0  0  0  0
    7.5662    0.3202    3.9131 H   0  0  0  0  0  0
    6.1930   -3.0192    0.5607 H   0  0  0  0  0  0
    5.9361   -1.6517   -0.5100 H   0  0  0  0  0  0
    7.5077   -1.9013    0.2356 H   0  0  0  0  0  0
   -3.4700   -0.7707    0.1958 N   0  3  0  0  0  0
   -3.0434   -0.0520   -0.3725 H   0  0  0  0  0  0
  1 27  2  0  0  0
  2  4  1  0  0  0
  2 10  1  0  0  0
  2 11  1  0  0  0
  3 27  1  0  0  0
  3 30  1  0  0  0
  3 31  1  0  0  0
  4  5  1  0  0  0
  4  6  1  0  0  0
  4 34  1  0  0  0
  5  7  1  0  0  0
  5 35  1  0  0  0
  5 36  1  0  0  0
  6  8  1  0  0  0
  6 37  1  0  0  0
  6 38  1  0  0  0
  7 39  1  0  0  0
  7 40  1  0  0  0
  7 71  1  0  0  0
  8 41  1  0  0  0
  8 42  1  0  0  0
  8 71  1  0  0  0
  9 12  1  0  0  0
  9 43  1  0  0  0
  9 44  1  0  0  0
  9 71  1  0  0  0
 10 13  2  0  0  0
 10 14  1  0  0  0
 11 15  2  0  0  0
 11 16  1  0  0  0
 12 17  2  0  0  0
 12 18  1  0  0  0
 13 19  1  0  0  0
 13 45  1  0  0  0
 14 20  2  0  0  0
 14 46  1  0  0  0
 15 21  1  0  0  0
 15 47  1  0  0  0
 16 22  2  0  0  0
 16 48  1  0  0  0
 17 25  1  0  0  0
 17 49  1  0  0  0
 18 26  2  0  0  0
 18 50  1  0  0  0
 19 23  2  0  0  0
 19 51  1  0  0  0
 20 23  1  0  0  0
 20 52  1  0  0  0
 21 24  2  0  0  0
 21 53  1  0  0  0
 22 24  1  0  0  0
 22 54  1  0  0  0
 23 27  1  0  0  0
 24 29  1  0  0  0
 25 28  2  0  0  0
 25 55  1  0  0  0
 26 28  1  0  0  0
 26 56  1  0  0  0
 28 57  1  0  0  0
 29 58  1  0  0  0
 29 59  1  0  0  0
 29 60  1  0  0  0
 30 32  1  0  0  0
 30 61  1  0  0  0
 30 62  1  0  0  0
 31 33  1  0  0  0
 31 63  1  0  0  0
 31 64  1  0  0  0
 32 65  1  0  0  0
 32 66  1  0  0  0
 32 67  1  0  0  0
 33 68  1  0  0  0
 33 69  1  0  0  0
 33 70  1  0  0  0
 71 72  1  0  0  0
M  CHG  1  71   1
M  END
> <LID>
L018205

> <PC_CID>
12988882

> <Names>


> <CAS_Numbers>


$$$$
12988883
                    3D
 Structure written by MMmdl.
 75 79  0  0  1  0            999 V2000
    0.2412    9.5259    2.5191 O   0  0  0  0  0  0
    3.3087    4.0179    3.2756 N   0  0  0  0  0  0
   -0.1912    8.6732    0.4517 N   0  0  0  0  0  0
    3.1127    2.7485    2.5584 C   0  0  0  0  0  0
    3.9695    2.6428    1.2833 C   0  0  0  0  0  0
    1.6395    2.4532    2.2063 C   0  0  0  0  0  0
    3.7862    1.2710    0.6139 C   0  0  0  0  0  0
    1.5034    1.0868    1.5151 C   0  0  0  0  0  0
    2.1762   -0.2435   -0.4729 C   0  0  0  0  0  0
    4.2741    4.0310    4.2247 C   0  0  0  0  0  0
    2.6229    5.1204    2.8974 C   0  0  0  0  0  0
    0.8066   -0.3249   -1.1242 C   0  0  0  0  0  0
    4.0726    3.4869    5.5245 C   0  0  0  0  0  0
    5.5289    4.5891    3.8938 C   0  0  0  0  0  0
    3.0321    5.8803    1.7804 C   0  0  0  0  0  0
    1.4822    5.5224    3.6243 C   0  0  0  0  0  0
    5.1364    3.5183    6.4669 C   0  0  0  0  0  0
    0.5341    0.4234   -2.2892 C   0  0  0  0  0  0
   -0.1983   -1.1483   -0.5725 C   0  0  0  0  0  0
    6.5751    4.6166    4.8326 C   0  0  0  0  0  0
    2.8370    2.9146    5.9158 C   0  0  0  0  0  0
    2.2988    7.0150    1.3843 C   0  0  0  0  0  0
    0.7484    6.6567    3.2280 C   0  0  0  0  0  0
    6.3796    4.0820    6.1173 C   0  0  0  0  0  0
    1.1371    7.3961    2.0909 C   0  0  0  0  0  0
    4.9589    2.9862    7.7611 C   0  0  0  0  0  0
   -0.7358    0.3532   -2.8944 C   0  0  0  0  0  0
   -1.4679   -1.2175   -1.1783 C   0  0  0  0  0  0
    2.6655    2.3852    7.2088 C   0  0  0  0  0  0
    3.7257    2.4201    8.1318 C   0  0  0  0  0  0
    0.3554    8.6170    1.6957 C   0  0  0  0  0  0
   -1.7370   -0.4665   -2.3388 C   0  0  0  0  0  0
   -0.8269    9.9148   -0.0188 C   0  0  0  0  0  0
   -0.2969    7.5312   -0.4767 C   0  0  0  0  0  0
   -2.3132    9.9804    0.3621 C   0  0  0  0  0  0
   -1.2888    6.4594    0.0070 C   0  0  0  0  0  0
    3.4389    1.9502    3.2276 H   0  0  0  0  0  0
    3.6953    3.4223    0.5728 H   0  0  0  0  0  0
    5.0227    2.7937    1.5222 H   0  0  0  0  0  0
    1.0252    2.4674    3.1069 H   0  0  0  0  0  0
    1.2403    3.2246    1.5460 H   0  0  0  0  0  0
    4.3771    1.2395   -0.3024 H   0  0  0  0  0  0
    4.1672    0.4812    1.2636 H   0  0  0  0  0  0
    0.4569    0.9320    1.2531 H   0  0  0  0  0  0
    1.7779    0.2874    2.2054 H   0  0  0  0  0  0
    2.9225   -0.3000   -1.2669 H   0  0  0  0  0  0
    2.3445   -1.1078    0.1717 H   0  0  0  0  0  0
    5.6965    5.0003    2.9090 H   0  0  0  0  0  0
    3.9173    5.6053    1.2268 H   0  0  0  0  0  0
    1.1614    4.9607    4.4889 H   0  0  0  0  0  0
    1.2968    1.0539   -2.7226 H   0  0  0  0  0  0
   -0.0011   -1.7274    0.3180 H   0  0  0  0  0  0
    7.5290    5.0473    4.5659 H   0  0  0  0  0  0
    2.0033    2.8737    5.2325 H   0  0  0  0  0  0
    2.6354    7.5928    0.5356 H   0  0  0  0  0  0
   -0.1223    6.9512    3.7962 H   0  0  0  0  0  0
    7.1890    4.1068    6.8326 H   0  0  0  0  0  0
    5.7682    3.0103    8.4766 H   0  0  0  0  0  0
   -0.9420    0.9276   -3.7856 H   0  0  0  0  0  0
   -2.2356   -1.8473   -0.7532 H   0  0  0  0  0  0
    1.7176    1.9521    7.4928 H   0  0  0  0  0  0
    3.5932    2.0141    9.1239 H   0  0  0  0  0  0
   -2.7107   -0.5204   -2.8034 H   0  0  0  0  0  0
   -0.3096   10.7869    0.3854 H   0  0  0  0  0  0
   -0.7224   10.0125   -1.0999 H   0  0  0  0  0  0
   -0.6289    7.8715   -1.4579 H   0  0  0  0  0  0
    0.6781    7.0848   -0.6625 H   0  0  0  0  0  0
   -2.7532   10.9224    0.0345 H   0  0  0  0  0  0
   -2.8795    9.1746   -0.1041 H   0  0  0  0  0  0
   -2.4514    9.9094    1.4414 H   0  0  0  0  0  0
   -1.3865    5.6666   -0.7347 H   0  0  0  0  0  0
   -0.9676    5.9927    0.9374 H   0  0  0  0  0  0
   -2.2810    6.8793    0.1704 H   0  0  0  0  0  0
    2.3575    1.0114    0.2990 N   0  3  0  0  0  0
    2.0606    1.7605   -0.3102 H   0  0  0  0  0  0
  1 31  2  0  0  0
  2  4  1  0  0  0
  2 10  1  0  0  0
  2 11  1  0  0  0
  3 31  1  0  0  0
  3 33  1  0  0  0
  3 34  1  0  0  0
  4  5  1  0  0  0
  4  6  1  0  0  0
  4 37  1  0  0  0
  5  7  1  0  0  0
  5 38  1  0  0  0
  5 39  1  0  0  0
  6  8  1  0  0  0
  6 40  1  0  0  0
  6 41  1  0  0  0
  7 42  1  0  0  0
  7 43  1  0  0  0
  7 74  1  0  0  0
  8 44  1  0  0  0
  8 45  1  0  0  0
  8 74  1  0  0  0
  9 12  1  0  0  0
  9 46  1  0  0  0
  9 47  1  0  0  0
  9 74  1  0  0  0
 10 13  1  0  0  0
 10 14  2  0  0  0
 11 15  2  0  0  0
 11 16  1  0  0  0
 12 18  2  0  0  0
 12 19  1  0  0  0
 13 17  1  0  0  0
 13 21  2  0  0  0
 14 20  1  0  0  0
 14 48  1  0  0  0
 15 22  1  0  0  0
 15 49  1  0  0  0
 16 23  2  0  0  0
 16 50  1  0  0  0
 17 24  1  0  0  0
 17 26  2  0  0  0
 18 27  1  0  0  0
 18 51  1  0  0  0
 19 28  2  0  0  0
 19 52  1  0  0  0
 20 24  2  0  0  0
 20 53  1  0  0  0
 21 29  1  0  0  0
 21 54  1  0  0  0
 22 25  2  0  0  0
 22 55  1  0  0  0
 23 25  1  0  0  0
 23 56  1  0  0  0
 24 57  1  0  0  0
 25 31  1  0  0  0
 26 30  1  0  0  0
 26 58  1  0  0  0
 27 32  2  0  0  0
 27 59  1  0  0  0
 28 32  1  0  0  0
 28 60  1  0  0  0
 29 30  2  0  0  0
 29 61  1  0  0  0
 30 62  1  0  0  0
 32 63  1  0  0  0
 33 35  1  0  0  0
 33 64  1  0  0  0
 33 65  1  0  0  0
 34 36  1  0  0  0
 34 66  1  0  0  0
 34 67  1  0  0  0
 35 68  1  0  0  0
 35 69  1  0  0  0
 35 70  1  0  0  0
 36 71  1  0  0  0
 36 72  1  0  0  0
 36 73  1  0  0  0
 74 75  1  0  0  0
M  CHG  1  74   1
M  END
> <LID>
L018206

> <PC_CID>
12988883

> <Names>


> <CAS_Numbers>


$$$$
12988881
                    3D
 Structure written by MMmdl.
 69 72  0  0  1  0            999 V2000
   -0.2998    4.6840    1.8540 O   0  0  0  0  0  0
   -1.2357   -1.1405   -0.4741 N   0  0  0  0  0  0
   -1.6083    5.2968    0.0925 N   0  0  0  0  0  0
   -0.1208   -2.0242   -0.0942 C   0  0  0  0  0  0
    0.1159   -2.0859    1.4276 C   0  0  0  0  0  0
    1.2018   -1.6700   -0.7997 C   0  0  0  0  0  0
    1.2468   -3.0712    1.7650 C   0  0  0  0  0  0
    2.3108   -2.6639   -0.4173 C   0  0  0  0  0  0
    3.6411   -3.5705    1.4759 C   0  0  0  0  0  0
   -1.1659    0.1745   -0.1648 C   0  0  0  0  0  0
   -2.3423   -1.7140   -1.0033 C   0  0  0  0  0  0
    4.9823   -2.9875    1.0663 C   0  0  0  0  0  0
   -1.7282    0.6480    1.0400 C   0  0  0  0  0  0
   -0.5407    1.0874   -1.0414 C   0  0  0  0  0  0
   -2.9902   -2.7895   -0.3518 C   0  0  0  0  0  0
   -2.8679   -1.2363   -2.2253 C   0  0  0  0  0  0
    5.6832   -3.5170   -0.0386 C   0  0  0  0  0  0
    5.5357   -1.9124    1.7937 C   0  0  0  0  0  0
   -1.6618    2.0158    1.3671 C   0  0  0  0  0  0
   -0.4745    2.4553   -0.7151 C   0  0  0  0  0  0
   -1.0508    2.9302    0.4835 C   0  0  0  0  0  0
   -4.1406   -3.3763   -0.9138 C   0  0  0  0  0  0
   -4.0182   -1.8234   -2.7872 C   0  0  0  0  0  0
   -4.6549   -2.8940   -2.1320 C   0  0  0  0  0  0
    6.9253   -2.9707   -0.4162 C   0  0  0  0  0  0
    6.7780   -1.3671    1.4154 C   0  0  0  0  0  0
   -0.9604    4.3811    0.8597 C   0  0  0  0  0  0
    7.4726   -1.8956    0.3102 C   0  0  0  0  0  0
   -1.4849    6.7336    0.3792 C   0  0  0  0  0  0
   -2.5439    4.9751   -0.9978 C   0  0  0  0  0  0
   -0.2640    7.3406   -0.3260 C   0  0  0  0  0  0
   -3.9323    4.5970   -0.4610 C   0  0  0  0  0  0
   -0.3728   -3.0350   -0.4200 H   0  0  0  0  0  0
    0.3772   -1.0996    1.8130 H   0  0  0  0  0  0
   -0.7974   -2.3874    1.9412 H   0  0  0  0  0  0
    1.0615   -1.6739   -1.8813 H   0  0  0  0  0  0
    1.5240   -0.6641   -0.5289 H   0  0  0  0  0  0
    1.4158   -3.0647    2.8425 H   0  0  0  0  0  0
    0.9527   -4.0874    1.4968 H   0  0  0  0  0  0
    2.0673   -3.6607   -0.7885 H   0  0  0  0  0  0
    3.2347   -2.3609   -0.9099 H   0  0  0  0  0  0
    3.6450   -3.6748    2.5620 H   0  0  0  0  0  0
    3.5219   -4.5762    1.0692 H   0  0  0  0  0  0
   -2.2099   -0.0395    1.7202 H   0  0  0  0  0  0
   -0.1069    0.7400   -1.9677 H   0  0  0  0  0  0
   -2.6142   -3.1684    0.5868 H   0  0  0  0  0  0
   -2.3890   -0.4172   -2.7415 H   0  0  0  0  0  0
    5.2708   -4.3413   -0.6021 H   0  0  0  0  0  0
    5.0101   -1.5016    2.6435 H   0  0  0  0  0  0
   -2.0898    2.3619    2.2970 H   0  0  0  0  0  0
    0.0190    3.1393   -1.3906 H   0  0  0  0  0  0
   -4.6297   -4.1962   -0.4087 H   0  0  0  0  0  0
   -4.4117   -1.4518   -3.7219 H   0  0  0  0  0  0
   -5.5374   -3.3439   -2.5627 H   0  0  0  0  0  0
    7.4589   -3.3768   -1.2630 H   0  0  0  0  0  0
    7.1990   -0.5436    1.9734 H   0  0  0  0  0  0
    8.4254   -1.4773    0.0206 H   0  0  0  0  0  0
   -2.3861    7.2612    0.0636 H   0  0  0  0  0  0
   -1.4186    6.9134    1.4536 H   0  0  0  0  0  0
   -2.6440    5.8338   -1.6632 H   0  0  0  0  0  0
   -2.1647    4.1833   -1.6401 H   0  0  0  0  0  0
   -0.1904    8.4088   -0.1212 H   0  0  0  0  0  0
    0.6620    6.8745    0.0122 H   0  0  0  0  0  0
   -0.3286    7.2134   -1.4070 H   0  0  0  0  0  0
   -4.6228    4.4012   -1.2814 H   0  0  0  0  0  0
   -3.8933    3.6996    0.1567 H   0  0  0  0  0  0
   -4.3544    5.4011    0.1424 H   0  0  0  0  0  0
    2.5036   -2.7134    1.0574 N   0  3  0  0  0  0
    2.7367   -1.7752    1.3505 H   0  0  0  0  0  0
  1 27  2  0  0  0
  2  4  1  0  0  0
  2 10  1  0  0  0
  2 11  1  0  0  0
  3 27  1  0  0  0
  3 29  1  0  0  0
  3 30  1  0  0  0
  4  5  1  0  0  0
  4  6  1  0  0  0
  4 33  1  0  0  0
  5  7  1  0  0  0
  5 34  1  0  0  0
  5 35  1  0  0  0
  6  8  1  0  0  0
  6 36  1  0  0  0
  6 37  1  0  0  0
  7 38  1  0  0  0
  7 39  1  0  0  0
  7 68  1  0  0  0
  8 40  1  0  0  0
  8 41  1  0  0  0
  8 68  1  0  0  0
  9 12  1  0  0  0
  9 42  1  0  0  0
  9 43  1  0  0  0
  9 68  1  0  0  0
 10 13  2  0  0  0
 10 14  1  0  0  0
 11 15  2  0  0  0
 11 16  1  0  0  0
 12 17  2  0  0  0
 12 18  1  0  0  0
 13 19  1  0  0  0
 13 44  1  0  0  0
 14 20  2  0  0  0
 14 45  1  0  0  0
 15 22  1  0  0  0
 15 46  1  0  0  0
 16 23  2  0  0  0
 16 47  1  0  0  0
 17 25  1  0  0  0
 17 48  1  0  0  0
 18 26  2  0  0  0
 18 49  1  0  0  0
 19 21  2  0  0  0
 19 50  1  0  0  0
 20 21  1  0  0  0
 20 51  1  0  0  0
 21 27  1  0  0  0
 22 24  2  0  0  0
 22 52  1  0  0  0
 23 24  1  0  0  0
 23 53  1  0  0  0
 24 54  1  0  0  0
 25 28  2  0  0  0
 25 55  1  0  0  0
 26 28  1  0  0  0
 26 56  1  0  0  0
 28 57  1  0  0  0
 29 31  1  0  0  0
 29 58  1  0  0  0
 29 59  1  0  0  0
 30 32  1  0  0  0
 30 60  1  0  0  0
 30 61  1  0  0  0
 31 62  1  0  0  0
 31 63  1  0  0  0
 31 64  1  0  0  0
 32 65  1  0  0  0
 32 66  1  0  0  0
 32 67  1  0  0  0
 68 69  1  0  0  0
M  CHG  1  68   1
M  END
> <LID>
L018204

> <PC_CID>
12988881

> <Names>


> <CAS_Numbers>


$$$$
44214566
                    3D
 Structure written by MMmdl.
 76 82  0  0  1  0            999 V2000
   -2.0144    0.6688   -2.0042 O   0  0  0  0  0  0
   -1.8977    3.7569   -1.7188 O   0  0  0  0  0  0
    3.0523   -2.2032   -2.3728 O   0  0  0  0  0  0
    0.4450   -1.0182   -1.6969 N   0  0  0  0  0  0
    3.8046   -0.4674   -1.1030 N   0  0  0  0  0  0
   -3.1594   -0.7072   -0.4298 C   0  0  1  0  0  0
   -2.8872   -1.6131    0.7992 C   0  0  2  0  0  0
   -4.0145   -1.3198    1.8190 C   0  0  1  0  0  0
   -2.0650   -0.6888   -1.5379 C   0  0  2  0  0  0
   -4.5280   -1.1010   -1.0384 C   0  0  0  0  0  0
   -3.1470    0.7315   -0.0042 C   0  0  0  0  0  0
   -1.4558   -1.4892    1.3896 C   0  0  0  0  0  0
   -4.0382    0.1780    2.2575 C   0  0  0  0  0  0
   -5.6756   -1.0434   -0.0143 C   0  0  0  0  0  0
   -3.6350    1.2257    1.2155 C   0  0  0  0  0  0
   -0.7223   -1.0202   -0.9755 C   0  0  0  0  0  0
   -0.4154   -1.3796    0.3034 C   0  0  0  0  0  0
   -2.5213    1.4572   -1.0058 C   0  0  0  0  0  0
    0.9980   -1.6047    0.3732 C   0  0  0  0  0  0
   -6.4303   -1.8565    2.1958 C   0  0  0  0  0  0
   -3.5603    2.6221    1.3800 C   0  0  0  0  0  0
   -2.4627    2.8673   -0.8288 C   0  0  0  0  0  0
    1.5055   -1.3384   -0.8783 C   0  0  0  0  0  0
   -3.0020    3.4273    0.3580 C   0  0  0  0  0  0
    1.7576   -2.0583    1.5921 C   0  0  0  0  0  0
    2.8596   -1.3777   -1.4785 C   0  0  0  0  0  0
   -1.3172    3.2569   -2.9129 C   0  0  0  0  0  0
    5.0864   -0.4108   -1.8640 C   0  0  0  0  0  0
    3.5796    0.5571   -0.0544 C   0  0  0  0  0  0
    5.7465    0.9816   -1.9325 C   0  0  0  0  0  0
    6.0938   -1.4746   -1.3891 C   0  0  0  0  0  0
    4.4587    0.4477    1.1877 C   0  0  0  0  0  0
    4.9168   -0.7981    1.6716 C   0  0  0  0  0  0
    4.7968    1.6235    1.8917 C   0  0  0  0  0  0
    5.7124   -0.8650    2.8314 C   0  0  0  0  0  0
    5.5923    1.5582    3.0520 C   0  0  0  0  0  0
    6.0518    0.3135    3.5220 C   0  0  0  0  0  0
   -2.9748   -2.6483    0.4637 H   0  0  0  0  0  0
   -3.8493   -1.9360    2.7041 H   0  0  0  0  0  0
   -2.2969   -1.3728   -2.3550 H   0  0  0  0  0  0
   -4.4633   -2.1149   -1.4359 H   0  0  0  0  0  0
   -4.7662   -0.4601   -1.8886 H   0  0  0  0  0  0
   -1.2381   -2.3429    2.0313 H   0  0  0  0  0  0
   -1.3639   -0.5977    2.0094 H   0  0  0  0  0  0
   -3.3283    0.2955    3.0767 H   0  0  0  0  0  0
   -4.9996    0.4614    2.6825 H   0  0  0  0  0  0
   -5.9339   -0.0092    0.2164 H   0  0  0  0  0  0
   -6.5702   -1.4913   -0.4485 H   0  0  0  0  0  0
    0.5210   -0.7939   -2.6789 H   0  0  0  0  0  0
   -7.2758   -2.3771    1.7452 H   0  0  0  0  0  0
   -6.1355   -2.4170    3.0835 H   0  0  0  0  0  0
   -6.7781   -0.8724    2.5094 H   0  0  0  0  0  0
   -3.9047    3.0780    2.2967 H   0  0  0  0  0  0
   -2.9510    4.4963    0.5042 H   0  0  0  0  0  0
    1.1205   -2.6528    2.2462 H   0  0  0  0  0  0
    2.6064   -2.6779    1.3058 H   0  0  0  0  0  0
    2.1169   -1.1988    2.1572 H   0  0  0  0  0  0
   -0.9307    4.0905   -3.4990 H   0  0  0  0  0  0
   -0.4801    2.5906   -2.7006 H   0  0  0  0  0  0
   -2.0529    2.7376   -3.5283 H   0  0  0  0  0  0
    4.8634   -0.6421   -2.9074 H   0  0  0  0  0  0
    3.7004    1.5478   -0.4906 H   0  0  0  0  0  0
    2.5540    0.5833    0.3065 H   0  0  0  0  0  0
    6.6182    0.9599   -2.5871 H   0  0  0  0  0  0
    5.0636    1.7281   -2.3388 H   0  0  0  0  0  0
    6.0910    1.3236   -0.9565 H   0  0  0  0  0  0
    6.9246   -1.5559   -2.0904 H   0  0  0  0  0  0
    6.5219   -1.2243   -0.4199 H   0  0  0  0  0  0
    5.6375   -2.4618   -1.3132 H   0  0  0  0  0  0
    4.6682   -1.7118    1.1541 H   0  0  0  0  0  0
    4.4468    2.5839    1.5425 H   0  0  0  0  0  0
    6.0623   -1.8214    3.1912 H   0  0  0  0  0  0
    5.8488    2.4636    3.5823 H   0  0  0  0  0  0
    6.6619    0.2628    4.4118 H   0  0  0  0  0  0
   -5.3118   -1.7683    1.2285 N   0  3  2  0  0  0
   -5.1464   -2.7226    0.9414 H   0  0  0  0  0  0
  1  9  1  0  0  0
  1 18  1  0  0  0
  2 22  1  0  0  0
  2 27  1  0  0  0
  3 26  2  0  0  0
  4 16  1  0  0  0
  4 23  1  0  0  0
  4 49  1  0  0  0
  5 26  1  0  0  0
  5 28  1  0  0  0
  5 29  1  0  0  0
  6  7  1  0  0  0
  6  9  1  0  0  0
  6 10  1  0  0  0
  6 11  1  0  0  0
  7  8  1  0  0  0
  7 12  1  0  0  0
  7 38  1  0  0  0
  8 13  1  0  0  0
  8 39  1  0  0  0
  8 75  1  0  0  0
  9 16  1  0  0  0
  9 40  1  0  0  0
 10 14  1  0  0  0
 10 41  1  0  0  0
 10 42  1  0  0  0
 11 15  2  0  0  0
 11 18  1  0  0  0
 12 17  1  0  0  0
 12 43  1  0  0  0
 12 44  1  0  0  0
 13 15  1  0  0  0
 13 45  1  0  0  0
 13 46  1  0  0  0
 14 47  1  0  0  0
 14 48  1  0  0  0
 14 75  1  0  0  0
 15 21  1  0  0  0
 16 17  2  0  0  0
 17 19  1  0  0  0
 18 22  2  0  0  0
 19 23  2  0  0  0
 19 25  1  0  0  0
 20 50  1  0  0  0
 20 51  1  0  0  0
 20 52  1  0  0  0
 20 75  1  0  0  0
 21 24  2  0  0  0
 21 53  1  0  0  0
 22 24  1  0  0  0
 23 26  1  0  0  0
 24 54  1  0  0  0
 25 55  1  0  0  0
 25 56  1  0  0  0
 25 57  1  0  0  0
 27 58  1  0  0  0
 27 59  1  0  0  0
 27 60  1  0  0  0
 28 30  1  0  0  0
 28 31  1  0  0  0
 28 61  1  0  0  0
 29 32  1  0  0  0
 29 62  1  0  0  0
 29 63  1  0  0  0
 30 64  1  0  0  0
 30 65  1  0  0  0
 30 66  1  0  0  0
 31 67  1  0  0  0
 31 68  1  0  0  0
 31 69  1  0  0  0
 32 33  2  0  0  0
 32 34  1  0  0  0
 33 35  1  0  0  0
 33 70  1  0  0  0
 34 36  2  0  0  0
 34 71  1  0  0  0
 35 37  2  0  0  0
 35 72  1  0  0  0
 36 37  1  0  0  0
 36 73  1  0  0  0
 37 74  1  0  0  0
 75 76  1  0  0  0
M  CHG  1  75   1
M  END
> <LID>
L018074

> <PC_CID>
44214566

> <Names>


> <CAS_Numbers>
193612-32-7

$$$$
44214567
                    3D
 Structure written by MMmdl.
 65 70  0  0  1  0            999 V2000
   -0.3238    1.4926   -0.9067 O   0  0  0  0  0  0
   -0.7157    4.0460    0.8131 O   0  0  0  0  0  0
    4.5302   -0.4076    0.0417 O   0  0  0  0  0  0
    4.4489   -2.0276    1.6484 O   0  0  0  0  0  0
    1.8654   -0.4670   -0.3132 N   0  0  0  0  0  0
   -1.9155   -0.2825   -0.9206 C   0  0  1  0  0  0
   -2.1614   -1.6839   -0.3034 C   0  0  2  0  0  0
   -3.6638   -1.7437    0.0652 C   0  0  1  0  0  0
   -0.4352    0.0960   -1.2231 C   0  0  2  0  0  0
   -2.7721   -0.1530   -2.2043 C   0  0  0  0  0  0
   -2.2729    0.7761    0.0807 C   0  0  0  0  0  0
   -1.2100   -2.0503    0.8684 C   0  0  0  0  0  0
   -4.0650   -0.6346    1.0875 C   0  0  0  0  0  0
   -4.2674   -0.4180   -1.9534 C   0  0  0  0  0  0
   -3.3372    0.7097    0.9933 C   0  0  0  0  0  0
    0.5045   -0.6443   -0.3295 C   0  0  0  0  0  0
    0.2025   -1.5971    0.5979 C   0  0  0  0  0  0
   -1.3332    1.7891   -0.0300 C   0  0  0  0  0  0
    1.4258   -2.0173    1.2152 C   0  0  0  0  0  0
   -5.8872   -2.0500   -1.0432 C   0  0  0  0  0  0
   -3.5117    1.8445    1.8085 C   0  0  0  0  0  0
   -1.5296    2.9325    0.7929 C   0  0  0  0  0  0
    2.4402   -1.2995    0.6254 C   0  0  0  0  0  0
   -2.6304    2.9461    1.6878 C   0  0  0  0  0  0
    1.5646   -3.0494    2.3066 C   0  0  0  0  0  0
    3.8910   -1.2930    0.8322 C   0  0  0  0  0  0
    0.4159    4.0839   -0.0420 C   0  0  0  0  0  0
    5.9416   -0.2839    0.1176 C   0  0  0  0  0  0
    6.4345    0.7583   -0.8994 C   0  0  0  0  0  0
    7.9217    1.0690   -0.6797 C   0  0  0  0  0  0
    6.1799    0.3055   -2.3460 C   0  0  0  0  0  0
   -1.9593   -2.4208   -1.0831 H   0  0  0  0  0  0
   -3.8719   -2.7169    0.5125 H   0  0  0  0  0  0
   -0.1692   -0.0892   -2.2645 H   0  0  0  0  0  0
   -2.4100   -0.8640   -2.9483 H   0  0  0  0  0  0
   -2.6471    0.8357   -2.6484 H   0  0  0  0  0  0
   -1.2273   -3.1256    1.0468 H   0  0  0  0  0  0
   -1.5269   -1.5714    1.7945 H   0  0  0  0  0  0
   -3.8499   -1.0114    2.0879 H   0  0  0  0  0  0
   -5.1381   -0.4508    1.0867 H   0  0  0  0  0  0
   -4.7209    0.4153   -1.4155 H   0  0  0  0  0  0
   -4.7883   -0.4830   -2.9095 H   0  0  0  0  0  0
    2.3756    0.1819   -0.8956 H   0  0  0  0  0  0
   -6.3493   -2.1778   -2.0226 H   0  0  0  0  0  0
   -5.9902   -2.9936   -0.5066 H   0  0  0  0  0  0
   -6.4523   -1.2863   -0.5092 H   0  0  0  0  0  0
   -4.3017    1.8654    2.5448 H   0  0  0  0  0  0
   -2.7791    3.8064    2.3239 H   0  0  0  0  0  0
    0.5902   -3.3893    2.6561 H   0  0  0  0  0  0
    2.1187   -3.9136    1.9399 H   0  0  0  0  0  0
    2.1020   -2.6306    3.1576 H   0  0  0  0  0  0
    0.9351    5.0325    0.0938 H   0  0  0  0  0  0
    1.1223    3.2876    0.1959 H   0  0  0  0  0  0
    0.1265    4.0166   -1.0915 H   0  0  0  0  0  0
    6.2170    0.0223    1.1279 H   0  0  0  0  0  0
    6.4140   -1.2493   -0.0705 H   0  0  0  0  0  0
    5.8794    1.6822   -0.7314 H   0  0  0  0  0  0
    8.2696    1.8375   -1.3706 H   0  0  0  0  0  0
    8.1021    1.4322    0.3325 H   0  0  0  0  0  0
    8.5384    0.1822   -0.8299 H   0  0  0  0  0  0
    6.5192    1.0580   -3.0584 H   0  0  0  0  0  0
    6.7053   -0.6238   -2.5682 H   0  0  0  0  0  0
    5.1181    0.1389   -2.5296 H   0  0  0  0  0  0
   -4.4610   -1.6800   -1.1970 N   0  3  2  0  0  0
   -4.0709   -2.4044   -1.7832 H   0  0  0  0  0  0
  1  9  1  0  0  0
  1 18  1  0  0  0
  2 22  1  0  0  0
  2 27  1  0  0  0
  3 26  1  0  0  0
  3 28  1  0  0  0
  4 26  2  0  0  0
  5 16  1  0  0  0
  5 23  1  0  0  0
  5 43  1  0  0  0
  6  7  1  0  0  0
  6  9  1  0  0  0
  6 10  1  0  0  0
  6 11  1  0  0  0
  7  8  1  0  0  0
  7 12  1  0  0  0
  7 32  1  0  0  0
  8 13  1  0  0  0
  8 33  1  0  0  0
  8 64  1  0  0  0
  9 16  1  0  0  0
  9 34  1  0  0  0
 10 14  1  0  0  0
 10 35  1  0  0  0
 10 36  1  0  0  0
 11 15  2  0  0  0
 11 18  1  0  0  0
 12 17  1  0  0  0
 12 37  1  0  0  0
 12 38  1  0  0  0
 13 15  1  0  0  0
 13 39  1  0  0  0
 13 40  1  0  0  0
 14 41  1  0  0  0
 14 42  1  0  0  0
 14 64  1  0  0  0
 15 21  1  0  0  0
 16 17  2  0  0  0
 17 19  1  0  0  0
 18 22  2  0  0  0
 19 23  2  0  0  0
 19 25  1  0  0  0
 20 44  1  0  0  0
 20 45  1  0  0  0
 20 46  1  0  0  0
 20 64  1  0  0  0
 21 24  2  0  0  0
 21 47  1  0  0  0
 22 24  1  0  0  0
 23 26  1  0  0  0
 24 48  1  0  0  0
 25 49  1  0  0  0
 25 50  1  0  0  0
 25 51  1  0  0  0
 27 52  1  0  0  0
 27 53  1  0  0  0
 27 54  1  0  0  0
 28 29  1  0  0  0
 28 55  1  0  0  0
 28 56  1  0  0  0
 29 30  1  0  0  0
 29 31  1  0  0  0
 29 57  1  0  0  0
 30 58  1  0  0  0
 30 59  1  0  0  0
 30 60  1  0  0  0
 31 61  1  0  0  0
 31 62  1  0  0  0
 31 63  1  0  0  0
 64 65  1  0  0  0
M  CHG  1  64   1
M  END
> <LID>
L018075

> <PC_CID>
44214567

> <Names>


> <CAS_Numbers>
177284-77-4

$$$$
12988888
                    3D
 Structure written by MMmdl.
 72 75  0  0  1  0            999 V2000
   -2.6976    4.1101    2.1899 O   0  0  0  0  0  0
   -1.1524   -1.3035   -0.7302 N   0  0  0  0  0  0
   -4.3570    4.1537    0.6294 N   0  0  0  0  0  0
    0.2818   -1.5851   -0.5513 C   0  0  0  0  0  0
    0.7133   -1.6325    0.9276 C   0  0  0  0  0  0
    1.1926   -0.6049   -1.3142 C   0  0  0  0  0  0
    2.2035   -1.9904    1.0513 C   0  0  0  0  0  0
    2.6721   -0.9874   -1.1442 C   0  0  0  0  0  0
    4.5023   -1.2842    0.5072 C   0  0  0  0  0  0
    5.3651   -0.0416    0.2251 C   0  0  0  0  0  0
   -1.6537   -0.1332   -0.2731 C   0  0  0  0  0  0
   -1.9311   -2.2917   -1.2310 C   0  0  0  0  0  0
    6.8342   -0.2993    0.5000 C   0  0  0  0  0  0
   -2.2098   -0.0603    1.0221 C   0  0  0  0  0  0
   -1.6353    1.0225   -1.0834 C   0  0  0  0  0  0
   -1.9239   -3.5867   -0.6621 C   0  0  0  0  0  0
   -2.7700   -2.0348   -2.3391 C   0  0  0  0  0  0
   -2.7359    1.1538    1.5033 C   0  0  0  0  0  0
   -2.1619    2.2366   -0.6029 C   0  0  0  0  0  0
   -2.7316    2.3046    0.6874 C   0  0  0  0  0  0
   -2.7392   -4.6049   -1.1933 C   0  0  0  0  0  0
   -3.5851   -3.0531   -2.8704 C   0  0  0  0  0  0
    7.6617   -0.8303   -0.5120 C   0  0  0  0  0  0
    7.3788   -0.0153    1.7703 C   0  0  0  0  0  0
   -3.5698   -4.3389   -2.2980 C   0  0  0  0  0  0
   -3.2683    3.5998    1.2251 C   0  0  0  0  0  0
    9.0250   -1.0742   -0.2554 C   0  0  0  0  0  0
    8.7423   -0.2596    2.0259 C   0  0  0  0  0  0
    9.5656   -0.7889    1.0133 C   0  0  0  0  0  0
   -4.8699    5.4578    1.0742 C   0  0  0  0  0  0
   -5.1732    3.5045   -0.4098 C   0  0  0  0  0  0
   -4.1658    6.6120    0.3472 C   0  0  0  0  0  0
   -6.1514    2.4846    0.1917 C   0  0  0  0  0  0
    0.4816   -2.5711   -0.9745 H   0  0  0  0  0  0
    0.1152   -2.3625    1.4735 H   0  0  0  0  0  0
    0.5388   -0.6683    1.4066 H   0  0  0  0  0  0
    1.0493    0.4138   -0.9526 H   0  0  0  0  0  0
    0.9330   -0.6014   -2.3735 H   0  0  0  0  0  0
    2.4837   -1.9792    2.1054 H   0  0  0  0  0  0
    2.3789   -3.0043    0.6877 H   0  0  0  0  0  0
    2.8631   -1.9576   -1.6060 H   0  0  0  0  0  0
    3.2836   -0.2608   -1.6776 H   0  0  0  0  0  0
    4.6662   -1.5745    1.5462 H   0  0  0  0  0  0
    4.8267   -2.1292   -0.1024 H   0  0  0  0  0  0
    5.2655    0.2802   -0.8112 H   0  0  0  0  0  0
    5.0293    0.7951    0.8394 H   0  0  0  0  0  0
   -2.2307   -0.9371    1.6530 H   0  0  0  0  0  0
   -1.2142    0.9818   -2.0773 H   0  0  0  0  0  0
   -1.2985   -3.8077    0.1900 H   0  0  0  0  0  0
   -2.7910   -1.0540   -2.7911 H   0  0  0  0  0  0
   -3.1510    1.1958    2.5002 H   0  0  0  0  0  0
   -2.1284    3.1155   -1.2307 H   0  0  0  0  0  0
   -2.7284   -5.5904   -0.7515 H   0  0  0  0  0  0
   -4.2221   -2.8471   -3.7180 H   0  0  0  0  0  0
    7.2542   -1.0530   -1.4874 H   0  0  0  0  0  0
    6.7538    0.3896    2.5529 H   0  0  0  0  0  0
   -4.1953   -5.1198   -2.7052 H   0  0  0  0  0  0
    9.6564   -1.4805   -1.0320 H   0  0  0  0  0  0
    9.1568   -0.0411    2.9991 H   0  0  0  0  0  0
   10.6111   -0.9760    1.2097 H   0  0  0  0  0  0
   -5.9450    5.5210    0.8999 H   0  0  0  0  0  0
   -4.7551    5.5756    2.1531 H   0  0  0  0  0  0
   -5.7407    4.2582   -0.9574 H   0  0  0  0  0  0
   -4.5598    3.0277   -1.1713 H   0  0  0  0  0  0
   -4.5642    7.5736    0.6712 H   0  0  0  0  0  0
   -3.0942    6.6132    0.5491 H   0  0  0  0  0  0
   -4.3041    6.5418   -0.7320 H   0  0  0  0  0  0
   -6.7748    2.0432   -0.5859 H   0  0  0  0  0  0
   -5.6260    1.6714    0.6926 H   0  0  0  0  0  0
   -6.8131    2.9547    0.9197 H   0  0  0  0  0  0
    3.0537   -1.0348    0.2934 N   0  3  0  0  0  0
    2.8606   -0.1219    0.6807 H   0  0  0  0  0  0
  1 26  2  0  0  0
  2  4  1  0  0  0
  2 11  1  0  0  0
  2 12  1  0  0  0
  3 26  1  0  0  0
  3 30  1  0  0  0
  3 31  1  0  0  0
  4  5  1  0  0  0
  4  6  1  0  0  0
  4 34  1  0  0  0
  5  7  1  0  0  0
  5 35  1  0  0  0
  5 36  1  0  0  0
  6  8  1  0  0  0
  6 37  1  0  0  0
  6 38  1  0  0  0
  7 39  1  0  0  0
  7 40  1  0  0  0
  7 71  1  0  0  0
  8 41  1  0  0  0
  8 42  1  0  0  0
  8 71  1  0  0  0
  9 10  1  0  0  0
  9 43  1  0  0  0
  9 44  1  0  0  0
  9 71  1  0  0  0
 10 13  1  0  0  0
 10 45  1  0  0  0
 10 46  1  0  0  0
 11 14  2  0  0  0
 11 15  1  0  0  0
 12 16  2  0  0  0
 12 17  1  0  0  0
 13 23  2  0  0  0
 13 24  1  0  0  0
 14 18  1  0  0  0
 14 47  1  0  0  0
 15 19  2  0  0  0
 15 48  1  0  0  0
 16 21  1  0  0  0
 16 49  1  0  0  0
 17 22  2  0  0  0
 17 50  1  0  0  0
 18 20  2  0  0  0
 18 51  1  0  0  0
 19 20  1  0  0  0
 19 52  1  0  0  0
 20 26  1  0  0  0
 21 25  2  0  0  0
 21 53  1  0  0  0
 22 25  1  0  0  0
 22 54  1  0  0  0
 23 27  1  0  0  0
 23 55  1  0  0  0
 24 28  2  0  0  0
 24 56  1  0  0  0
 25 57  1  0  0  0
 27 29  2  0  0  0
 27 58  1  0  0  0
 28 29  1  0  0  0
 28 59  1  0  0  0
 29 60  1  0  0  0
 30 32  1  0  0  0
 30 61  1  0  0  0
 30 62  1  0  0  0
 31 33  1  0  0  0
 31 63  1  0  0  0
 31 64  1  0  0  0
 32 65  1  0  0  0
 32 66  1  0  0  0
 32 67  1  0  0  0
 33 68  1  0  0  0
 33 69  1  0  0  0
 33 70  1  0  0  0
 71 72  1  0  0  0
M  CHG  1  71   1
M  END
> <LID>
L018213

> <PC_CID>
12988888

> <Names>


> <CAS_Numbers>


$$$$
11477321
                    3D
 Structure written by MMmdl.
 78 81  0  0  1  0            999 V2000
    3.7570   -1.8555   -0.6634 O   0  0  0  0  0  0
   -2.1415   -3.2069    1.6360 O   0  0  0  0  0  0
    2.6996    0.1639   -0.7694 N   0  0  0  0  0  0
   -3.9595   -1.9029    1.2163 N   0  0  0  0  0  0
    0.8523   -2.5932   -1.6745 C   0  0  0  0  0  0
   -0.2848   -2.7599   -2.7045 C   0  0  0  0  0  0
    1.3901   -3.9792   -1.2509 C   0  0  0  0  0  0
   -1.4076   -3.6699   -2.1807 C   0  0  0  0  0  0
    0.2671   -4.8874   -0.7239 C   0  0  0  0  0  0
   -0.8617   -5.0397   -1.7538 C   0  0  0  0  0  0
    1.9487   -1.6472   -2.2183 C   0  0  0  0  0  0
    2.8909   -1.1181   -1.1317 C   0  0  0  0  0  0
    0.8451    3.4479    0.0914 C   0  0  0  0  0  0
    1.8714    4.5480   -0.1856 C   0  0  0  0  0  0
   -0.5916    3.8690   -0.2216 C   0  0  0  0  0  0
    1.1815    2.2250    0.5806 C   0  0  0  0  0  0
    3.3215    0.8862    0.2880 C   0  0  0  0  0  0
    2.5840    1.9090    0.9437 C   0  0  0  0  0  0
    1.3961    5.5221   -1.2763 C   0  0  0  0  0  0
   -0.7952    5.3849   -0.0613 C   0  0  0  0  0  0
    0.1796    1.1543    0.7745 C   0  0  0  0  0  0
    4.6642    0.6434    0.6687 C   0  0  0  0  0  0
    3.1887    2.6248    2.0020 C   0  0  0  0  0  0
    0.0740    0.5036    2.0225 C   0  0  0  0  0  0
   -0.6440    0.7244   -0.2903 C   0  0  0  0  0  0
    5.2560    1.3756    1.7138 C   0  0  0  0  0  0
    4.5156    2.3622    2.3864 C   0  0  0  0  0  0
   -1.6821   -0.9569    1.1484 C   0  0  0  0  0  0
   -0.8443   -0.5479    2.2067 C   0  0  0  0  0  0
   -1.5680   -0.3207   -0.1056 C   0  0  0  0  0  0
   -2.6226   -2.1104    1.3477 C   0  0  0  0  0  0
   -4.9010   -3.0211    1.3819 C   0  0  0  0  0  0
   -4.6031   -0.5881    1.0529 C   0  0  0  0  0  0
   -5.1844   -3.3194    2.8627 C   0  0  0  0  0  0
   -5.1225   -0.3579   -0.3763 C   0  0  0  0  0  0
    0.4221   -2.1291   -0.7866 H   0  0  0  0  0  0
   -0.7036   -1.7858   -2.9596 H   0  0  0  0  0  0
    0.1163   -3.1747   -3.6303 H   0  0  0  0  0  0
    1.8801   -4.4597   -2.0987 H   0  0  0  0  0  0
    2.1473   -3.8788   -0.4742 H   0  0  0  0  0  0
   -2.1714   -3.7973   -2.9482 H   0  0  0  0  0  0
   -1.9005   -3.1937   -1.3335 H   0  0  0  0  0  0
   -0.1344   -4.4703    0.2002 H   0  0  0  0  0  0
    0.6711   -5.8675   -0.4689 H   0  0  0  0  0  0
   -0.4892   -5.5743   -2.6284 H   0  0  0  0  0  0
   -1.6657   -5.6473   -1.3374 H   0  0  0  0  0  0
    1.4836   -0.7956   -2.7175 H   0  0  0  0  0  0
    2.5386   -2.1550   -2.9822 H   0  0  0  0  0  0
    1.9097    0.6232   -1.1978 H   0  0  0  0  0  0
    2.0491    5.0982    0.7393 H   0  0  0  0  0  0
    2.8271    4.1165   -0.4847 H   0  0  0  0  0  0
   -0.8254    3.5793   -1.2467 H   0  0  0  0  0  0
   -1.2964    3.3460    0.4252 H   0  0  0  0  0  0
    2.1461    6.2908   -1.4645 H   0  0  0  0  0  0
    1.2654    4.9781   -2.2128 H   0  0  0  0  0  0
   -1.8274    5.6633   -0.2757 H   0  0  0  0  0  0
   -0.6057    5.6654    0.9757 H   0  0  0  0  0  0
    5.2636   -0.0976    0.1623 H   0  0  0  0  0  0
    2.6303    3.3868    2.5260 H   0  0  0  0  0  0
    0.7075    0.8028    2.8449 H   0  0  0  0  0  0
   -0.5560    1.1814   -1.2647 H   0  0  0  0  0  0
    6.2791    1.1789    1.9990 H   0  0  0  0  0  0
    4.9664    2.9211    3.1933 H   0  0  0  0  0  0
   -0.9017   -1.0412    3.1666 H   0  0  0  0  0  0
   -2.1608   -0.6528   -0.9435 H   0  0  0  0  0  0
   -5.8437   -2.8005    0.8812 H   0  0  0  0  0  0
   -4.5174   -3.9159    0.8883 H   0  0  0  0  0  0
   -5.4425   -0.5223    1.7464 H   0  0  0  0  0  0
   -3.9453    0.2314    1.3422 H   0  0  0  0  0  0
   -5.8992   -4.1365    2.9609 H   0  0  0  0  0  0
   -4.2780   -3.6107    3.3941 H   0  0  0  0  0  0
   -5.6045   -2.4501    3.3690 H   0  0  0  0  0  0
   -5.5746    0.6302   -0.4630 H   0  0  0  0  0  0
   -4.3284   -0.4192   -1.1176 H   0  0  0  0  0  0
   -5.8841   -1.0870   -0.6517 H   0  0  0  0  0  0
    0.1101    6.1741   -0.9309 N   0  3  0  0  0  0
   -0.3692    6.3833   -1.7952 H   0  0  0  0  0  0
    0.3041    7.0462   -0.4591 H   0  0  0  0  0  0
  1 12  2  0  0  0
  2 31  2  0  0  0
  3 12  1  0  0  0
  3 17  1  0  0  0
  3 49  1  0  0  0
  4 31  1  0  0  0
  4 32  1  0  0  0
  4 33  1  0  0  0
  5  6  1  0  0  0
  5  7  1  0  0  0
  5 11  1  0  0  0
  5 36  1  0  0  0
  6  8  1  0  0  0
  6 37  1  0  0  0
  6 38  1  0  0  0
  7  9  1  0  0  0
  7 39  1  0  0  0
  7 40  1  0  0  0
  8 10  1  0  0  0
  8 41  1  0  0  0
  8 42  1  0  0  0
  9 10  1  0  0  0
  9 43  1  0  0  0
  9 44  1  0  0  0
 10 45  1  0  0  0
 10 46  1  0  0  0
 11 12  1  0  0  0
 11 47  1  0  0  0
 11 48  1  0  0  0
 13 14  1  0  0  0
 13 15  1  0  0  0
 13 16  2  0  0  0
 14 19  1  0  0  0
 14 50  1  0  0  0
 14 51  1  0  0  0
 15 20  1  0  0  0
 15 52  1  0  0  0
 15 53  1  0  0  0
 16 18  1  0  0  0
 16 21  1  0  0  0
 17 18  1  0  0  0
 17 22  2  0  0  0
 18 23  2  0  0  0
 19 54  1  0  0  0
 19 55  1  0  0  0
 19 76  1  0  0  0
 20 56  1  0  0  0
 20 57  1  0  0  0
 20 76  1  0  0  0
 21 24  2  0  0  0
 21 25  1  0  0  0
 22 26  1  0  0  0
 22 58  1  0  0  0
 23 27  1  0  0  0
 23 59  1  0  0  0
 24 29  1  0  0  0
 24 60  1  0  0  0
 25 30  2  0  0  0
 25 61  1  0  0  0
 26 27  2  0  0  0
 26 62  1  0  0  0
 27 63  1  0  0  0
 28 29  2  0  0  0
 28 30  1  0  0  0
 28 31  1  0  0  0
 29 64  1  0  0  0
 30 65  1  0  0  0
 32 34  1  0  0  0
 32 66  1  0  0  0
 32 67  1  0  0  0
 33 35  1  0  0  0
 33 68  1  0  0  0
 33 69  1  0  0  0
 34 70  1  0  0  0
 34 71  1  0  0  0
 34 72  1  0  0  0
 35 73  1  0  0  0
 35 74  1  0  0  0
 35 75  1  0  0  0
 76 77  1  0  0  0
 76 78  1  0  0  0
M  CHG  1  76   1
M  END
> <LID>
L023442

> <PC_CID>
11477321

> <Names>


> <CAS_Numbers>


$$$$
518962
                    3D
 Structure written by MMmdl.
 64 69  0  0  1  0            999 V2000
    3.1750   -0.4889   -1.3772 O   0  0  0  0  0  0
    5.5539   -2.7416   -1.5638 O   0  0  0  0  0  0
    7.2734   -2.7504    2.4547 O   0  0  0  0  0  0
    0.2916    0.2498   -0.7474 O   0  0  0  0  0  0
    4.9176    0.8697   -0.6217 C   0  0  2  0  0  0
    6.2045    0.8920    0.2208 C   0  0  1  0  0  0
    4.5155   -0.5756   -0.8495 C   0  0  2  0  0  0
    5.7937   -1.5043   -0.9030 C   0  0  1  0  0  0
    6.2525    2.3647    0.7257 C   0  0  1  0  0  0
    6.2093   -0.2457    1.3070 C   0  0  0  0  0  0
    6.1636   -1.6967    0.6407 C   0  0  2  0  0  0
    5.0804    1.7707   -1.8962 C   0  0  0  0  0  0
    3.6701    1.3118    0.0066 C   0  0  0  0  0  0
    7.2784    0.4429   -0.7813 C   0  0  0  0  0  0
    4.9495    2.7620    1.5331 C   0  0  0  0  0  0
    7.0067   -0.7167   -1.4247 C   0  0  0  0  0  0
    5.4404    3.2201   -1.4963 C   0  0  0  0  0  0
    7.3616   -2.6406    1.0439 C   0  0  1  0  0  0
    3.5840    2.3004    0.9795 C   0  0  0  0  0  0
    2.6700    0.5595   -0.6021 C   0  0  0  0  0  0
    8.7948   -2.1184    0.7220 C   0  0  0  0  0  0
    6.8821    4.6489   -0.0827 C   0  0  0  0  0  0
    2.2608    2.6297    1.3476 C   0  0  0  0  0  0
    7.1492   -4.0754    0.5213 C   0  0  0  0  0  0
    1.3590    0.9184   -0.2252 C   0  0  0  0  0  0
    1.1638    1.9582    0.7308 C   0  0  0  0  0  0
    5.2354   -2.6467   -2.9454 C   0  0  0  0  0  0
    9.9802   -2.9563    1.2564 C   0  0  0  0  0  0
   10.5530   -3.9539    0.2383 C   0  0  0  0  0  0
    4.1041   -1.0081    0.0675 H   0  0  0  0  0  0
    7.1135    2.4708    1.3870 H   0  0  0  0  0  0
    7.0797   -0.1292    1.9512 H   0  0  0  0  0  0
    5.3509   -0.1262    1.9691 H   0  0  0  0  0  0
    5.3228   -2.2184    1.1045 H   0  0  0  0  0  0
    5.8311    1.3941   -2.5893 H   0  0  0  0  0  0
    4.1672    1.7833   -2.4930 H   0  0  0  0  0  0
    8.1371    1.0593   -1.0024 H   0  0  0  0  0  0
    5.0269    2.3180    2.5259 H   0  0  0  0  0  0
    4.9067    3.8356    1.7101 H   0  0  0  0  0  0
    7.6505   -1.1350   -2.1841 H   0  0  0  0  0  0
    4.5532    3.7449   -1.1402 H   0  0  0  0  0  0
    5.7781    3.7667   -2.3776 H   0  0  0  0  0  0
    8.9303   -2.0171   -0.3525 H   0  0  0  0  0  0
    8.9047   -1.1120    1.1239 H   0  0  0  0  0  0
    6.0412    5.2089    0.3265 H   0  0  0  0  0  0
    7.6874    4.6492    0.6525 H   0  0  0  0  0  0
    7.2402    5.1847   -0.9624 H   0  0  0  0  0  0
    2.0793    3.3791    2.1040 H   0  0  0  0  0  0
    7.3642   -4.1479   -0.5446 H   0  0  0  0  0  0
    6.1240   -4.4124    0.6781 H   0  0  0  0  0  0
    7.7952   -4.7907    1.0305 H   0  0  0  0  0  0
    7.4174   -1.8975    2.8344 H   0  0  0  0  0  0
    0.1579    2.2203    1.0245 H   0  0  0  0  0  0
    5.0695   -3.6479   -3.3428 H   0  0  0  0  0  0
    4.3256   -2.0720   -3.1160 H   0  0  0  0  0  0
    6.0442   -2.1964   -3.5206 H   0  0  0  0  0  0
   10.7851   -2.2725    1.5282 H   0  0  0  0  0  0
    9.7187   -3.4747    2.1788 H   0  0  0  0  0  0
    0.5504   -0.4297   -1.3514 H   0  0  0  0  0  0
   10.9000   -3.4429   -0.6601 H   0  0  0  0  0  0
   11.4042   -4.4878    0.6612 H   0  0  0  0  0  0
    9.8196   -4.6987   -0.0664 H   0  0  0  0  0  0
    6.4974    3.2664   -0.4478 N   0  3  2  0  0  0
    7.3192    2.8810   -0.8908 H   0  0  0  0  0  0
  1  7  1  0  0  0
  1 20  1  0  0  0
  2  8  1  0  0  0
  2 27  1  0  0  0
  3 18  1  0  0  0
  3 52  1  0  0  0
  4 25  1  0  0  0
  4 59  1  0  0  0
  5  6  1  0  0  0
  5  7  1  0  0  0
  5 12  1  0  0  0
  5 13  1  0  0  0
  6  9  1  0  0  0
  6 10  1  0  0  0
  6 14  1  0  0  0
  7  8  1  0  0  0
  7 30  1  0  0  0
  8 11  1  0  0  0
  8 16  1  0  0  0
  9 15  1  0  0  0
  9 31  1  0  0  0
  9 63  1  0  0  0
 10 11  1  0  0  0
 10 32  1  0  0  0
 10 33  1  0  0  0
 11 18  1  0  0  0
 11 34  1  0  0  0
 12 17  1  0  0  0
 12 35  1  0  0  0
 12 36  1  0  0  0
 13 19  2  0  0  0
 13 20  1  0  0  0
 14 16  2  0  0  0
 14 37  1  0  0  0
 15 19  1  0  0  0
 15 38  1  0  0  0
 15 39  1  0  0  0
 16 40  1  0  0  0
 17 41  1  0  0  0
 17 42  1  0  0  0
 17 63  1  0  0  0
 18 21  1  0  0  0
 18 24  1  0  0  0
 19 23  1  0  0  0
 20 25  2  0  0  0
 21 28  1  0  0  0
 21 43  1  0  0  0
 21 44  1  0  0  0
 22 45  1  0  0  0
 22 46  1  0  0  0
 22 47  1  0  0  0
 22 63  1  0  0  0
 23 26  2  0  0  0
 23 48  1  0  0  0
 24 49  1  0  0  0
 24 50  1  0  0  0
 24 51  1  0  0  0
 25 26  1  0  0  0
 26 53  1  0  0  0
 27 54  1  0  0  0
 27 55  1  0  0  0
 27 56  1  0  0  0
 28 29  1  0  0  0
 28 57  1  0  0  0
 28 58  1  0  0  0
 29 60  1  0  0  0
 29 61  1  0  0  0
 29 62  1  0  0  0
 63 64  1  0  0  0
M  CHG  1  63   1
M  END
> <LID>
L024016

> <PC_CID>
518962

> <Names>
Etorphine

> <CAS_Numbers>


$$$$
10116823
                    3D
 Structure written by MMmdl.
 71 74  0  0  1  0            999 V2000
    5.9805    1.5622   -0.2456 O   0  0  0  0  0  0
   -0.5311   -5.1927   -2.7722 O   0  0  0  0  0  0
   -5.1334    2.8073   -1.3209 N   0  0  0  0  0  0
    4.7324    3.4631   -0.1102 N   0  0  0  0  0  0
   -0.5875   -6.9877   -1.4214 N   0  0  0  0  0  0
   -2.2407   -1.6465    1.1116 C   0  0  0  0  0  0
   -1.3505    0.6898    0.8500 C   0  0  0  0  0  0
   -3.3543   -1.3129    0.1068 C   0  0  0  0  0  0
   -2.4918    0.9849   -0.1389 C   0  0  0  0  0  0
   -1.0018   -0.7947    0.8584 C   0  0  0  0  0  0
    0.2455   -1.2921    0.6529 C   0  0  0  0  0  0
   -4.8364    0.4522   -0.7593 C   0  0  0  0  0  0
    1.4125   -0.4128    0.4673 C   0  0  0  0  0  0
    0.5065   -2.7405    0.5953 C   0  0  0  0  0  0
   -5.4311    1.8150   -0.4532 C   0  0  0  0  0  0
    2.1094   -0.4118   -0.7593 C   0  0  0  0  0  0
    1.8767    0.3999    1.5242 C   0  0  0  0  0  0
   -0.0083   -3.5196   -0.4638 C   0  0  0  0  0  0
    1.3165   -3.3538    1.5731 C   0  0  0  0  0  0
   -6.2441    2.0034    0.6844 C   0  0  0  0  0  0
    3.6790    1.2494    0.1080 C   0  0  0  0  0  0
    3.2373    0.4121   -0.9377 C   0  0  0  0  0  0
    3.0037    1.2250    1.3470 C   0  0  0  0  0  0
    0.2505   -4.9063   -0.5367 C   0  0  0  0  0  0
    1.5934   -4.7317    1.5024 C   0  0  0  0  0  0
    1.0651   -5.5059    0.4519 C   0  0  0  0  0  0
    4.8899    2.1133   -0.0914 C   0  0  0  0  0  0
   -6.7697    3.2871    0.9273 C   0  0  0  0  0  0
   -5.6426    4.0347   -1.0795 C   0  0  0  0  0  0
   -6.4628    4.3260    0.0281 C   0  0  0  0  0  0
   -0.3019   -5.7089   -1.6803 C   0  0  0  0  0  0
    5.8960    4.3447   -0.2873 C   0  0  0  0  0  0
    3.4374    4.1647   -0.0936 C   0  0  0  0  0  0
    6.2979    4.4739   -1.7649 C   0  0  0  0  0  0
    3.1206    4.7804    1.2788 C   0  0  0  0  0  0
   -2.5900   -1.4354    2.1231 H   0  0  0  0  0  0
   -2.0335   -2.7148    1.0915 H   0  0  0  0  0  0
   -0.4986    1.3178    0.5947 H   0  0  0  0  0  0
   -1.6513    0.9764    1.8584 H   0  0  0  0  0  0
   -3.0490   -1.6074   -0.8988 H   0  0  0  0  0  0
   -4.2432   -1.8959    0.3515 H   0  0  0  0  0  0
   -2.7549    2.0400   -0.0629 H   0  0  0  0  0  0
   -2.1470    0.8197   -1.1610 H   0  0  0  0  0  0
   -4.5362    0.3887   -1.8069 H   0  0  0  0  0  0
   -5.6250   -0.2884   -0.6180 H   0  0  0  0  0  0
    1.7789   -1.0449   -1.5700 H   0  0  0  0  0  0
    1.3695    0.3886    2.4779 H   0  0  0  0  0  0
   -0.6126   -3.0435   -1.2230 H   0  0  0  0  0  0
    1.7307   -2.7666    2.3799 H   0  0  0  0  0  0
   -6.4640    1.1864    1.3560 H   0  0  0  0  0  0
    3.7592    0.4027   -1.8840 H   0  0  0  0  0  0
    3.3546    1.8259    2.1723 H   0  0  0  0  0  0
    2.2174   -5.1949    2.2526 H   0  0  0  0  0  0
    1.3013   -6.5593    0.4112 H   0  0  0  0  0  0
   -7.3968    3.4714    1.7872 H   0  0  0  0  0  0
   -5.3878    4.8075   -1.7895 H   0  0  0  0  0  0
   -6.8483    5.3231    0.1824 H   0  0  0  0  0  0
    5.6810    5.3375    0.1088 H   0  0  0  0  0  0
    6.7419    3.9797    0.2980 H   0  0  0  0  0  0
    3.4611    4.9608   -0.8391 H   0  0  0  0  0  0
    2.6161    3.5204   -0.4077 H   0  0  0  0  0  0
    7.1483    5.1468   -1.8755 H   0  0  0  0  0  0
    6.5841    3.5106   -2.1881 H   0  0  0  0  0  0
    5.4800    4.8734   -2.3648 H   0  0  0  0  0  0
    2.1602    5.2956    1.2537 H   0  0  0  0  0  0
    3.0657    4.0273    2.0623 H   0  0  0  0  0  0
    3.8732    5.5105    1.5761 H   0  0  0  0  0  0
   -0.9812   -7.5662   -2.1489 H   0  0  0  0  0  0
   -0.4145   -7.3679   -0.5027 H   0  0  0  0  0  0
   -3.6848    0.1350    0.1218 N   0  3  1  0  0  0
   -3.9869    0.3456    1.0624 H   0  0  0  0  0  0
  1 27  2  0  0  0
  2 31  2  0  0  0
  3 15  1  0  0  0
  3 29  2  0  0  0
  4 27  1  0  0  0
  4 32  1  0  0  0
  4 33  1  0  0  0
  5 31  1  0  0  0
  5 68  1  0  0  0
  5 69  1  0  0  0
  6  8  1  0  0  0
  6 10  1  0  0  0
  6 36  1  0  0  0
  6 37  1  0  0  0
  7  9  1  0  0  0
  7 10  1  0  0  0
  7 38  1  0  0  0
  7 39  1  0  0  0
  8 40  1  0  0  0
  8 41  1  0  0  0
  8 70  1  0  0  0
  9 42  1  0  0  0
  9 43  1  0  0  0
  9 70  1  0  0  0
 10 11  2  0  0  0
 11 13  1  0  0  0
 11 14  1  0  0  0
 12 15  1  0  0  0
 12 44  1  0  0  0
 12 45  1  0  0  0
 12 70  1  0  0  0
 13 16  2  0  0  0
 13 17  1  0  0  0
 14 18  2  0  0  0
 14 19  1  0  0  0
 15 20  2  0  0  0
 16 22  1  0  0  0
 16 46  1  0  0  0
 17 23  2  0  0  0
 17 47  1  0  0  0
 18 24  1  0  0  0
 18 48  1  0  0  0
 19 25  2  0  0  0
 19 49  1  0  0  0
 20 28  1  0  0  0
 20 50  1  0  0  0
 21 22  2  0  0  0
 21 23  1  0  0  0
 21 27  1  0  0  0
 22 51  1  0  0  0
 23 52  1  0  0  0
 24 26  2  0  0  0
 24 31  1  0  0  0
 25 26  1  0  0  0
 25 53  1  0  0  0
 26 54  1  0  0  0
 28 30  2  0  0  0
 28 55  1  0  0  0
 29 30  1  0  0  0
 29 56  1  0  0  0
 30 57  1  0  0  0
 32 34  1  0  0  0
 32 58  1  0  0  0
 32 59  1  0  0  0
 33 35  1  0  0  0
 33 60  1  0  0  0
 33 61  1  0  0  0
 34 62  1  0  0  0
 34 63  1  0  0  0
 34 64  1  0  0  0
 35 65  1  0  0  0
 35 66  1  0  0  0
 35 67  1  0  0  0
 70 71  1  0  0  0
M  CHG  1  70   1
M  END
> <LID>
L022237

> <PC_CID>
10116823

> <Names>


> <CAS_Numbers>


$$$$
11167597
                    3D
 Structure written by MMmdl.
 71 74  0  0  1  0            999 V2000
    1.6739    3.6110    0.4305 O   0  0  0  0  0  0
   -2.9834    0.3288    1.7747 O   0  0  0  0  0  0
   -2.1510   -1.0876    0.1983 N   0  0  0  0  0  0
    3.8124    2.8787    0.7136 N   0  0  0  0  0  0
   -2.3030    1.0715   -0.2741 N   0  0  0  0  0  0
    0.6179   -3.4877   -1.2488 C   0  0  0  0  0  0
   -0.0727   -4.8226   -1.5281 C   0  0  0  0  0  0
    1.7379   -3.2323   -2.2567 C   0  0  0  0  0  0
   -0.5421   -4.9103   -2.9918 C   0  0  0  0  0  0
    1.2235   -3.3364   -3.7014 C   0  0  0  0  0  0
    0.2782   -2.6439   -0.2363 C   0  0  0  0  0  0
   -0.7429   -3.0163    0.7745 C   0  0  0  0  0  0
    0.9063   -1.3148   -0.0773 C   0  0  0  0  0  0
   -1.9152   -2.2424    0.9923 C   0  0  0  0  0  0
    0.8309   -0.3529   -1.1099 C   0  0  0  0  0  0
    1.5110   -0.9559    1.1464 C   0  0  0  0  0  0
   -0.5107   -4.1482    1.5900 C   0  0  0  0  0  0
    1.9802    1.2870    0.2887 C   0  0  0  0  0  0
    1.3632    0.9368   -0.9293 C   0  0  0  0  0  0
    2.0374    0.3371    1.3320 C   0  0  0  0  0  0
   -2.8536   -2.6498    1.9701 C   0  0  0  0  0  0
   -1.4401   -4.5369    2.5719 C   0  0  0  0  0  0
    2.4863    2.6868    0.4869 C   0  0  0  0  0  0
   -2.6166   -3.7911    2.7570 C   0  0  0  0  0  0
    4.3355    4.2246    0.9905 C   0  0  0  0  0  0
    4.8473    1.8366    0.6092 C   0  0  0  0  0  0
   -2.5207    0.1223    0.6530 C   0  0  0  0  0  0
    4.2621    4.5544    2.4879 C   0  0  0  0  0  0
    5.2320    1.5634   -0.8524 C   0  0  0  0  0  0
   -2.4175    2.4798   -0.1262 C   0  0  0  0  0  0
   -1.5769    3.2866   -0.9215 C   0  0  0  0  0  0
   -3.3502    3.0981    0.7414 C   0  0  0  0  0  0
   -1.6396    4.6904   -0.8312 C   0  0  0  0  0  0
   -3.4141    4.5027    0.8281 C   0  0  0  0  0  0
   -2.5565    5.2992    0.0460 C   0  0  0  0  0  0
   -0.9348   -4.9917   -0.8856 H   0  0  0  0  0  0
    0.6338   -5.6258   -1.3154 H   0  0  0  0  0  0
    2.2454   -2.2820   -2.1074 H   0  0  0  0  0  0
    2.5039   -3.9917   -2.0943 H   0  0  0  0  0  0
   -0.9527   -5.8990   -3.1986 H   0  0  0  0  0  0
   -1.3427   -4.1911   -3.1708 H   0  0  0  0  0  0
    0.5147   -2.5334   -3.9084 H   0  0  0  0  0  0
    2.0480   -3.2233   -4.4058 H   0  0  0  0  0  0
    0.3462   -0.5974   -2.0436 H   0  0  0  0  0  0
    1.5549   -1.6676    1.9580 H   0  0  0  0  0  0
    0.3899   -4.7305    1.4595 H   0  0  0  0  0  0
    1.2888    1.6606   -1.7281 H   0  0  0  0  0  0
    2.4762    0.5996    2.2839 H   0  0  0  0  0  0
   -3.7648   -2.0908    2.1249 H   0  0  0  0  0  0
   -1.2510   -5.4087    3.1809 H   0  0  0  0  0  0
   -1.7451   -1.1078   -0.7246 H   0  0  0  0  0  0
   -3.3357   -4.0909    3.5050 H   0  0  0  0  0  0
    5.3690    4.3068    0.6509 H   0  0  0  0  0  0
    3.7938    4.9800    0.4188 H   0  0  0  0  0  0
    5.7386    2.1453    1.1574 H   0  0  0  0  0  0
    4.5446    0.9111    1.0940 H   0  0  0  0  0  0
    4.6671    5.5469    2.6858 H   0  0  0  0  0  0
    3.2327    4.5397    2.8474 H   0  0  0  0  0  0
    4.8343    3.8384    3.0785 H   0  0  0  0  0  0
    6.0270    0.8198   -0.9094 H   0  0  0  0  0  0
    4.3860    1.1847   -1.4262 H   0  0  0  0  0  0
    5.5902    2.4696   -1.3418 H   0  0  0  0  0  0
   -1.8660    0.7653   -1.1299 H   0  0  0  0  0  0
   -0.8689    2.8322   -1.5987 H   0  0  0  0  0  0
   -4.0317    2.5139    1.3405 H   0  0  0  0  0  0
   -0.9832    5.2996   -1.4350 H   0  0  0  0  0  0
   -4.1249    4.9692    1.4941 H   0  0  0  0  0  0
   -2.6058    6.3760    0.1149 H   0  0  0  0  0  0
    0.5659   -4.6403   -3.9332 N   0  3  0  0  0  0
    0.2093   -4.6665   -4.8781 H   0  0  0  0  0  0
    1.2576   -5.3689   -3.8281 H   0  0  0  0  0  0
  1 23  2  0  0  0
  2 27  2  0  0  0
  3 14  1  0  0  0
  3 27  1  0  0  0
  3 51  1  0  0  0
  4 23  1  0  0  0
  4 25  1  0  0  0
  4 26  1  0  0  0
  5 27  1  0  0  0
  5 30  1  0  0  0
  5 63  1  0  0  0
  6  7  1  0  0  0
  6  8  1  0  0  0
  6 11  2  0  0  0
  7  9  1  0  0  0
  7 36  1  0  0  0
  7 37  1  0  0  0
  8 10  1  0  0  0
  8 38  1  0  0  0
  8 39  1  0  0  0
  9 40  1  0  0  0
  9 41  1  0  0  0
  9 69  1  0  0  0
 10 42  1  0  0  0
 10 43  1  0  0  0
 10 69  1  0  0  0
 11 12  1  0  0  0
 11 13  1  0  0  0
 12 14  1  0  0  0
 12 17  2  0  0  0
 13 15  2  0  0  0
 13 16  1  0  0  0
 14 21  2  0  0  0
 15 19  1  0  0  0
 15 44  1  0  0  0
 16 20  2  0  0  0
 16 45  1  0  0  0
 17 22  1  0  0  0
 17 46  1  0  0  0
 18 19  2  0  0  0
 18 20  1  0  0  0
 18 23  1  0  0  0
 19 47  1  0  0  0
 20 48  1  0  0  0
 21 24  1  0  0  0
 21 49  1  0  0  0
 22 24  2  0  0  0
 22 50  1  0  0  0
 24 52  1  0  0  0
 25 28  1  0  0  0
 25 53  1  0  0  0
 25 54  1  0  0  0
 26 29  1  0  0  0
 26 55  1  0  0  0
 26 56  1  0  0  0
 28 57  1  0  0  0
 28 58  1  0  0  0
 28 59  1  0  0  0
 29 60  1  0  0  0
 29 61  1  0  0  0
 29 62  1  0  0  0
 30 31  2  0  0  0
 30 32  1  0  0  0
 31 33  1  0  0  0
 31 64  1  0  0  0
 32 34  2  0  0  0
 32 65  1  0  0  0
 33 35  2  0  0  0
 33 66  1  0  0  0
 34 35  1  0  0  0
 34 67  1  0  0  0
 35 68  1  0  0  0
 69 70  1  0  0  0
 69 71  1  0  0  0
M  CHG  1  69   1
M  END
> <LID>
L023443

> <PC_CID>
11167597

> <Names>


> <CAS_Numbers>


$$$$
9889472
                    3D
 Structure written by MMmdl.
 66 69  0  0  1  0            999 V2000
    2.1287    0.9180   -1.0916 O   0  0  0  0  0  0
   -4.0610    1.8242    1.1255 O   0  0  0  0  0  0
   -4.8655   -0.2816    0.7950 N   0  0  0  0  0  0
    2.1101   -2.3409    0.7431 C   0  0  0  0  0  0
    1.1765   -3.5410    0.6036 C   0  0  0  0  0  0
    3.5744   -2.7614    0.6383 C   0  0  0  0  0  0
    1.4719   -4.3219   -0.6875 C   0  0  0  0  0  0
    3.8248   -3.5662   -0.6492 C   0  0  0  0  0  0
    1.6955   -1.0610    0.9269 C   0  0  0  0  0  0
    0.2693   -0.6925    0.9463 C   0  0  0  0  0  0
    2.6581    0.0437    1.0957 C   0  0  0  0  0  0
   -0.5236   -0.8242   -0.2146 C   0  0  0  0  0  0
   -0.3004   -0.1310    2.1082 C   0  0  0  0  0  0
    2.8331    1.0173    0.0831 C   0  0  0  0  0  0
    3.3862    0.1584    2.3003 C   0  0  0  0  0  0
   -2.4433    0.1295    0.9603 C   0  0  0  0  0  0
   -1.8693   -0.4119   -0.2104 C   0  0  0  0  0  0
   -1.6465    0.2819    2.1143 C   0  0  0  0  0  0
    3.7549    2.0704    0.2720 C   0  0  0  0  0  0
    4.2970    1.2151    2.4877 C   0  0  0  0  0  0
   -3.8624    0.6192    0.9659 C   0  0  0  0  0  0
    4.4839    2.1701    1.4716 C   0  0  0  0  0  0
   -6.2644    0.1637    0.7158 C   0  0  0  0  0  0
   -4.6928   -1.7435    0.7712 C   0  0  0  0  0  0
    1.3256    1.9694   -1.4616 C   0  0  0  0  0  0
   -6.6525    0.5310   -0.7232 C   0  0  0  0  0  0
   -4.5538   -2.3215    2.1873 C   0  0  0  0  0  0
    1.3933    2.4438   -2.7870 C   0  0  0  0  0  0
    0.4141    2.5615   -0.5575 C   0  0  0  0  0  0
    0.5660    3.5042   -3.2056 C   0  0  0  0  0  0
   -0.4157    3.6190   -0.9765 C   0  0  0  0  0  0
   -0.3389    4.0918   -2.3006 C   0  0  0  0  0  0
    1.3381   -4.1902    1.4650 H   0  0  0  0  0  0
    0.1237   -3.2672    0.6381 H   0  0  0  0  0  0
    4.2568   -1.9131    0.6608 H   0  0  0  0  0  0
    3.8171   -3.3714    1.5093 H   0  0  0  0  0  0
    1.2240   -3.7143   -1.5591 H   0  0  0  0  0  0
    0.8531   -5.2182   -0.7379 H   0  0  0  0  0  0
    3.6985   -2.9237   -1.5219 H   0  0  0  0  0  0
    4.8510   -3.9341   -0.6720 H   0  0  0  0  0  0
   -0.0925   -1.2243   -1.1207 H   0  0  0  0  0  0
    0.2993   -0.0028    2.9975 H   0  0  0  0  0  0
    3.2474   -0.5699    3.0861 H   0  0  0  0  0  0
   -2.4559   -0.5027   -1.1133 H   0  0  0  0  0  0
   -2.0647    0.7195    3.0095 H   0  0  0  0  0  0
    3.9013    2.8066   -0.5048 H   0  0  0  0  0  0
    4.8524    1.2927    3.4108 H   0  0  0  0  0  0
    5.1844    2.9801    1.6127 H   0  0  0  0  0  0
   -6.9316   -0.6170    1.0840 H   0  0  0  0  0  0
   -6.4413    1.0152    1.3752 H   0  0  0  0  0  0
   -5.5502   -2.2083    0.2822 H   0  0  0  0  0  0
   -3.8434   -2.0436    0.1613 H   0  0  0  0  0  0
   -7.6954    0.8441   -0.7747 H   0  0  0  0  0  0
   -6.0419    1.3513   -1.1018 H   0  0  0  0  0  0
   -6.5273   -0.3186   -1.3951 H   0  0  0  0  0  0
   -4.4671   -3.4076    2.1539 H   0  0  0  0  0  0
   -3.6681   -1.9365    2.6929 H   0  0  0  0  0  0
   -5.4220   -2.0772    2.7999 H   0  0  0  0  0  0
    2.0819    1.9918   -3.4856 H   0  0  0  0  0  0
    0.3431    2.2042    0.4588 H   0  0  0  0  0  0
    0.6235    3.8648   -4.2221 H   0  0  0  0  0  0
   -1.1125    4.0652   -0.2821 H   0  0  0  0  0  0
   -0.9753    4.9031   -2.6223 H   0  0  0  0  0  0
    2.8968   -4.7132   -0.7565 N   0  3  0  0  0  0
    3.0648   -5.1917   -1.6302 H   0  0  0  0  0  0
    3.0890   -5.3501    0.0037 H   0  0  0  0  0  0
  1 14  1  0  0  0
  1 25  1  0  0  0
  2 21  2  0  0  0
  3 21  1  0  0  0
  3 23  1  0  0  0
  3 24  1  0  0  0
  4  5  1  0  0  0
  4  6  1  0  0  0
  4  9  2  0  0  0
  5  7  1  0  0  0
  5 33  1  0  0  0
  5 34  1  0  0  0
  6  8  1  0  0  0
  6 35  1  0  0  0
  6 36  1  0  0  0
  7 37  1  0  0  0
  7 38  1  0  0  0
  7 64  1  0  0  0
  8 39  1  0  0  0
  8 40  1  0  0  0
  8 64  1  0  0  0
  9 10  1  0  0  0
  9 11  1  0  0  0
 10 12  2  0  0  0
 10 13  1  0  0  0
 11 14  1  0  0  0
 11 15  2  0  0  0
 12 17  1  0  0  0
 12 41  1  0  0  0
 13 18  2  0  0  0
 13 42  1  0  0  0
 14 19  2  0  0  0
 15 20  1  0  0  0
 15 43  1  0  0  0
 16 17  2  0  0  0
 16 18  1  0  0  0
 16 21  1  0  0  0
 17 44  1  0  0  0
 18 45  1  0  0  0
 19 22  1  0  0  0
 19 46  1  0  0  0
 20 22  2  0  0  0
 20 47  1  0  0  0
 22 48  1  0  0  0
 23 26  1  0  0  0
 23 49  1  0  0  0
 23 50  1  0  0  0
 24 27  1  0  0  0
 24 51  1  0  0  0
 24 52  1  0  0  0
 25 28  2  0  0  0
 25 29  1  0  0  0
 26 53  1  0  0  0
 26 54  1  0  0  0
 26 55  1  0  0  0
 27 56  1  0  0  0
 27 57  1  0  0  0
 27 58  1  0  0  0
 28 30  1  0  0  0
 28 59  1  0  0  0
 29 31  2  0  0  0
 29 60  1  0  0  0
 30 32  2  0  0  0
 30 61  1  0  0  0
 31 32  1  0  0  0
 31 62  1  0  0  0
 32 63  1  0  0  0
 64 65  1  0  0  0
 64 66  1  0  0  0
M  CHG  1  64   1
M  END
> <LID>
L023465

> <PC_CID>
9889472

> <Names>


> <CAS_Numbers>


$$$$
9893248
                    3D
 Structure written by MMmdl.
 76 79  0  0  1  0            999 V2000
   -4.8411   -4.9643   -1.1013 S   0  0  0  0  0  0
    4.3911   -3.1608   -1.8558 O   0  0  0  0  0  0
   -6.0380   -4.5076   -0.3786 O   0  0  0  0  0  0
   -4.9094   -5.3019   -2.5306 O   0  0  0  0  0  0
   -3.6643   -3.6920   -0.9809 N   0  0  0  0  0  0
    5.5374   -1.8597   -0.3786 N   0  0  0  0  0  0
   -2.7096    2.8229    0.3583 C   0  0  0  0  0  0
   -0.3456    3.2846   -0.1667 C   0  0  0  0  0  0
   -2.3045    1.7091    1.3392 C   0  0  0  0  0  0
    0.1077    2.1872    0.8092 C   0  0  0  0  0  0
   -0.9569    1.1056    0.9580 C   0  0  0  0  0  0
   -2.0897    4.9938   -0.6236 C   0  0  0  0  0  0
   -0.7359   -0.2208    0.7662 C   0  0  0  0  0  0
    0.5755   -0.7342    0.3369 C   0  0  0  0  0  0
   -1.7894   -1.2275    0.9826 C   0  0  0  0  0  0
   -1.2072    6.2178   -0.4524 C   0  0  0  0  0  0
   -2.2586   -2.0028   -0.0992 C   0  0  0  0  0  0
    1.0515   -0.4853   -0.9685 C   0  0  0  0  0  0
    1.3455   -1.5291    1.2114 C   0  0  0  0  0  0
   -2.3096   -1.4589    2.2738 C   0  0  0  0  0  0
   -0.2397    6.5421   -1.4276 C   0  0  0  0  0  0
   -1.3543    7.0399    0.6850 C   0  0  0  0  0  0
   -3.2515   -2.9865    0.0908 C   0  0  0  0  0  0
    2.2953   -0.9986   -1.3833 C   0  0  0  0  0  0
    2.5895   -2.0431    0.7980 C   0  0  0  0  0  0
    3.0799   -1.7646   -0.4959 C   0  0  0  0  0  0
   -3.3014   -2.4366    2.4737 C   0  0  0  0  0  0
   -3.7735   -3.1966    1.3870 C   0  0  0  0  0  0
    0.5784    7.6767   -1.2627 C   0  0  0  0  0  0
   -0.5359    8.1745    0.8488 C   0  0  0  0  0  0
    0.4309    8.4926   -0.1245 C   0  0  0  0  0  0
    4.3963   -2.3192   -0.9566 C   0  0  0  0  0  0
    6.8454   -2.3887   -0.7938 C   0  0  0  0  0  0
    5.6118   -0.7430    0.5789 C   0  0  0  0  0  0
    7.3502   -1.7227   -2.0835 C   0  0  0  0  0  0
    5.8301   -1.2214    2.0235 C   0  0  0  0  0  0
   -4.0522   -6.3553   -0.1929 C   0  0  0  0  0  0
   -3.6389    3.2798    0.7009 H   0  0  0  0  0  0
   -2.9120    2.3947   -0.6250 H   0  0  0  0  0  0
   -0.4199    2.8773   -1.1764 H   0  0  0  0  0  0
    0.4174    4.0624   -0.1954 H   0  0  0  0  0  0
   -3.1004    0.9670    1.3697 H   0  0  0  0  0  0
   -2.2242    2.1154    2.3482 H   0  0  0  0  0  0
    0.2771    2.6259    1.7933 H   0  0  0  0  0  0
    1.0721    1.7923    0.4947 H   0  0  0  0  0  0
   -2.1127    4.6833   -1.6695 H   0  0  0  0  0  0
   -3.1093    5.2838   -0.3650 H   0  0  0  0  0  0
   -1.8504   -1.8360   -1.0859 H   0  0  0  0  0  0
    0.4607    0.1015   -1.6567 H   0  0  0  0  0  0
    0.9808   -1.7505    2.2039 H   0  0  0  0  0  0
   -1.9489   -0.8843    3.1146 H   0  0  0  0  0  0
   -0.1190    5.9216   -2.3037 H   0  0  0  0  0  0
   -2.0942    6.8038    1.4360 H   0  0  0  0  0  0
    2.6469   -0.7983   -2.3853 H   0  0  0  0  0  0
    3.1557   -2.6650    1.4746 H   0  0  0  0  0  0
   -3.7003   -2.6057    3.4630 H   0  0  0  0  0  0
   -4.5357   -3.9377    1.5705 H   0  0  0  0  0  0
    1.3191    7.9218   -2.0098 H   0  0  0  0  0  0
   -0.6500    8.8017    1.7208 H   0  0  0  0  0  0
    1.0581    9.3630    0.0013 H   0  0  0  0  0  0
   -3.2277   -3.4337   -1.8536 H   0  0  0  0  0  0
    7.5823   -2.2353   -0.0051 H   0  0  0  0  0  0
    6.7920   -3.4703   -0.9296 H   0  0  0  0  0  0
    6.4406   -0.0931    0.2949 H   0  0  0  0  0  0
    4.7323   -0.1008    0.5317 H   0  0  0  0  0  0
    8.3289   -2.1142   -2.3616 H   0  0  0  0  0  0
    6.6742   -1.9042   -2.9195 H   0  0  0  0  0  0
    7.4486   -0.6440   -1.9605 H   0  0  0  0  0  0
    5.8835   -0.3709    2.7033 H   0  0  0  0  0  0
    5.0223   -1.8637    2.3683 H   0  0  0  0  0  0
    6.7608   -1.7788    2.1271 H   0  0  0  0  0  0
   -3.8911   -6.0798    0.8481 H   0  0  0  0  0  0
   -4.7039   -7.2274   -0.2369 H   0  0  0  0  0  0
   -3.0963   -6.5958   -0.6570 H   0  0  0  0  0  0
   -1.6561    3.8625    0.2344 N   0  3  1  0  0  0
   -1.5292    4.2459    1.1602 H   0  0  0  0  0  0
  1  3  2  0  0  0
  1  4  2  0  0  0
  1  5  1  0  0  0
  1 37  1  0  0  0
  2 32  2  0  0  0
  5 23  1  0  0  0
  5 61  1  0  0  0
  6 32  1  0  0  0
  6 33  1  0  0  0
  6 34  1  0  0  0
  7  9  1  0  0  0
  7 38  1  0  0  0
  7 39  1  0  0  0
  7 75  1  0  0  0
  8 10  1  0  0  0
  8 40  1  0  0  0
  8 41  1  0  0  0
  8 75  1  0  0  0
  9 11  1  0  0  0
  9 42  1  0  0  0
  9 43  1  0  0  0
 10 11  1  0  0  0
 10 44  1  0  0  0
 10 45  1  0  0  0
 11 13  2  0  0  0
 12 16  1  0  0  0
 12 46  1  0  0  0
 12 47  1  0  0  0
 12 75  1  0  0  0
 13 14  1  0  0  0
 13 15  1  0  0  0
 14 18  2  0  0  0
 14 19  1  0  0  0
 15 17  2  0  0  0
 15 20  1  0  0  0
 16 21  2  0  0  0
 16 22  1  0  0  0
 17 23  1  0  0  0
 17 48  1  0  0  0
 18 24  1  0  0  0
 18 49  1  0  0  0
 19 25  2  0  0  0
 19 50  1  0  0  0
 20 27  2  0  0  0
 20 51  1  0  0  0
 21 29  1  0  0  0
 21 52  1  0  0  0
 22 30  2  0  0  0
 22 53  1  0  0  0
 23 28  2  0  0  0
 24 26  2  0  0  0
 24 54  1  0  0  0
 25 26  1  0  0  0
 25 55  1  0  0  0
 26 32  1  0  0  0
 27 28  1  0  0  0
 27 56  1  0  0  0
 28 57  1  0  0  0
 29 31  2  0  0  0
 29 58  1  0  0  0
 30 31  1  0  0  0
 30 59  1  0  0  0
 31 60  1  0  0  0
 33 35  1  0  0  0
 33 62  1  0  0  0
 33 63  1  0  0  0
 34 36  1  0  0  0
 34 64  1  0  0  0
 34 65  1  0  0  0
 35 66  1  0  0  0
 35 67  1  0  0  0
 35 68  1  0  0  0
 36 69  1  0  0  0
 36 70  1  0  0  0
 36 71  1  0  0  0
 37 72  1  0  0  0
 37 73  1  0  0  0
 37 74  1  0  0  0
 75 76  1  0  0  0
M  CHG  1  75   1
M  END
> <LID>
L023122

> <PC_CID>
9893248

> <Names>


> <CAS_Numbers>


$$$$
22475272
                    3D
 Structure written by MMmdl.
 66 68  0  0  1  0            999 V2000
    2.2017    9.9048  -15.6173 O   0  0  0  0  0  0
   -2.7615    5.9561  -15.5076 N   0  0  0  0  0  0
    1.4535   10.3572  -17.7206 N   0  0  0  0  0  0
   -2.4675    4.7466  -14.7154 C   0  0  1  0  0  0
   -1.6400    3.6840  -15.4839 C   0  0  1  0  0  0
   -1.7899    5.0825  -13.3697 C   0  0  0  0  0  0
   -1.3575    2.4642  -14.5797 C   0  0  0  0  0  0
   -1.5291    3.8176  -12.5425 C   0  0  0  0  0  0
   -2.3420    3.2150  -16.7719 C   0  0  0  0  0  0
   -0.2882    1.6937  -12.4779 C   0  0  0  0  0  0
   -1.7702    6.8415  -15.7635 C   0  0  0  0  0  0
   -4.0531    6.1907  -15.8370 C   0  0  0  0  0  0
    0.8601    0.9354  -13.1149 C   0  0  0  0  0  0
   -0.8766    6.6455  -16.8386 C   0  0  0  0  0  0
   -1.6257    7.9846  -14.9479 C   0  0  0  0  0  0
   -4.4100    6.3955  -17.1887 C   0  0  0  0  0  0
   -5.0593    6.2406  -14.8446 C   0  0  0  0  0  0
    0.1480    7.5773  -17.0920 C   0  0  0  0  0  0
   -0.6006    8.9160  -15.2002 C   0  0  0  0  0  0
    0.2806    8.7293  -16.2861 C   0  0  0  0  0  0
   -5.7507    6.6402  -17.5439 C   0  0  0  0  0  0
   -6.3998    6.4859  -15.1999 C   0  0  0  0  0  0
    0.8020   -0.3494  -13.4968 C   0  0  0  0  0  0
   -6.7463    6.6848  -16.5497 C   0  0  0  0  0  0
    1.3880    9.7168  -16.5228 C   0  0  0  0  0  0
    2.6138   11.2046  -18.0414 C   0  0  0  0  0  0
    0.3824   10.3605  -18.7352 C   0  0  0  0  0  0
    2.4217   12.6505  -17.5607 C   0  0  0  0  0  0
   -0.8596   11.1493  -18.2863 C   0  0  0  0  0  0
   -3.4153    4.2644  -14.4709 H   0  0  0  0  0  0
   -0.6766    4.1144  -15.7579 H   0  0  0  0  0  0
   -2.4151    5.7695  -12.7982 H   0  0  0  0  0  0
   -0.8398    5.5920  -13.5359 H   0  0  0  0  0  0
   -2.2868    1.9374  -14.3556 H   0  0  0  0  0  0
   -0.7250    1.7615  -15.1229 H   0  0  0  0  0  0
   -1.0206    4.0944  -11.6180 H   0  0  0  0  0  0
   -2.4723    3.3480  -12.2582 H   0  0  0  0  0  0
   -1.7493    2.4608  -17.2900 H   0  0  0  0  0  0
   -3.3173    2.7786  -16.5538 H   0  0  0  0  0  0
   -2.4999    4.0347  -17.4716 H   0  0  0  0  0  0
    0.0533    2.0349  -11.4998 H   0  0  0  0  0  0
   -1.1402    1.0336  -12.3060 H   0  0  0  0  0  0
    1.7779    1.4865  -13.2618 H   0  0  0  0  0  0
   -0.9700    5.7810  -17.4778 H   0  0  0  0  0  0
   -2.3003    8.1478  -14.1200 H   0  0  0  0  0  0
   -3.6559    6.3624  -17.9615 H   0  0  0  0  0  0
   -4.8074    6.0976  -13.8039 H   0  0  0  0  0  0
    0.8323    7.4017  -17.9096 H   0  0  0  0  0  0
   -0.4994    9.7812  -14.5607 H   0  0  0  0  0  0
   -6.0148    6.7939  -18.5798 H   0  0  0  0  0  0
   -7.1624    6.5233  -14.4360 H   0  0  0  0  0  0
    1.6569   -0.8338  -13.9457 H   0  0  0  0  0  0
   -0.0965   -0.9352  -13.3675 H   0  0  0  0  0  0
   -7.7744    6.8732  -16.8222 H   0  0  0  0  0  0
    3.5224   10.7925  -17.5984 H   0  0  0  0  0  0
    2.8069   11.1994  -19.1146 H   0  0  0  0  0  0
    0.7416   10.8062  -19.6631 H   0  0  0  0  0  0
    0.1025    9.3465  -19.0142 H   0  0  0  0  0  0
    3.3071   13.2486  -17.7766 H   0  0  0  0  0  0
    1.5763   13.1260  -18.0574 H   0  0  0  0  0  0
    2.2487   12.6933  -16.4850 H   0  0  0  0  0  0
   -1.6018   11.1797  -19.0841 H   0  0  0  0  0  0
   -1.3386   10.7002  -17.4170 H   0  0  0  0  0  0
   -0.6084   12.1790  -18.0331 H   0  0  0  0  0  0
   -0.6980    2.8552  -13.3057 N   0  3  1  0  0  0
    0.1510    3.3444  -13.5511 H   0  0  0  0  0  0
  1 25  2  0  0  0
  2  4  1  0  0  0
  2 11  1  0  0  0
  2 12  1  0  0  0
  3 25  1  0  0  0
  3 26  1  0  0  0
  3 27  1  0  0  0
  4  5  1  0  0  0
  4  6  1  0  0  0
  4 30  1  0  0  0
  5  7  1  0  0  0
  5  9  1  0  0  0
  5 31  1  0  0  0
  6  8  1  0  0  0
  6 32  1  0  0  0
  6 33  1  0  0  0
  7 34  1  0  0  0
  7 35  1  0  0  0
  7 65  1  0  0  0
  8 36  1  0  0  0
  8 37  1  0  0  0
  8 65  1  0  0  0
  9 38  1  0  0  0
  9 39  1  0  0  0
  9 40  1  0  0  0
 10 13  1  0  0  0
 10 41  1  0  0  0
 10 42  1  0  0  0
 10 65  1  0  0  0
 11 14  2  0  0  0
 11 15  1  0  0  0
 12 16  2  0  0  0
 12 17  1  0  0  0
 13 23  2  0  0  0
 13 43  1  0  0  0
 14 18  1  0  0  0
 14 44  1  0  0  0
 15 19  2  0  0  0
 15 45  1  0  0  0
 16 21  1  0  0  0
 16 46  1  0  0  0
 17 22  2  0  0  0
 17 47  1  0  0  0
 18 20  2  0  0  0
 18 48  1  0  0  0
 19 20  1  0  0  0
 19 49  1  0  0  0
 20 25  1  0  0  0
 21 24  2  0  0  0
 21 50  1  0  0  0
 22 24  1  0  0  0
 22 51  1  0  0  0
 23 52  1  0  0  0
 23 53  1  0  0  0
 24 54  1  0  0  0
 26 28  1  0  0  0
 26 55  1  0  0  0
 26 56  1  0  0  0
 27 29  1  0  0  0
 27 57  1  0  0  0
 27 58  1  0  0  0
 28 59  1  0  0  0
 28 60  1  0  0  0
 28 61  1  0  0  0
 29 62  1  0  0  0
 29 63  1  0  0  0
 29 64  1  0  0  0
 65 66  1  0  0  0
M  CHG  1  65   1
M  END
> <LID>
L019248

> <PC_CID>
22475272

> <Names>


> <CAS_Numbers>
229478-44-8;244048-67-7

$$$$
11293990
                    3D
 Structure written by MMmdl.
 69 72  0  0  1  0            999 V2000
   -1.9502    0.7253    1.4278 O   0  0  0  0  0  0
    2.9754    2.8304   -1.3821 O   0  0  0  0  0  0
    4.2997    0.9825   -1.5075 N   0  0  0  0  0  0
   -1.8982   -2.7038   -0.3650 C   0  0  0  0  0  0
   -0.6983   -3.6305   -0.5662 C   0  0  0  0  0  0
   -3.1861   -3.4480   -0.0098 C   0  0  0  0  0  0
   -1.1240   -5.0327   -1.0321 C   0  0  0  0  0  0
   -2.9038   -4.7727    0.7182 C   0  0  0  0  0  0
   -1.8242   -1.3523   -0.4846 C   0  0  0  0  0  0
   -0.5417   -0.6680   -0.7478 C   0  0  0  0  0  0
   -3.0190   -0.4873   -0.3456 C   0  0  0  0  0  0
   -3.0463    0.5582    0.6119 C   0  0  0  0  0  0
   -0.4052    0.1789   -1.8682 C   0  0  0  0  0  0
    0.5349   -0.7835    0.1589 C   0  0  0  0  0  0
   -4.1252   -0.6660   -1.2071 C   0  0  0  0  0  0
    1.8655    0.7709   -1.1787 C   0  0  0  0  0  0
    0.7877    0.8967   -2.0802 C   0  0  0  0  0  0
    1.7262   -0.0649   -0.0498 C   0  0  0  0  0  0
   -4.1918    1.3838    0.7131 C   0  0  0  0  0  0
   -5.2579    0.1619   -1.1038 C   0  0  0  0  0  0
    3.0995    1.6049   -1.3706 C   0  0  0  0  0  0
   -5.2926    1.1849   -0.1402 C   0  0  0  0  0  0
    5.5431    1.7658   -1.5509 C   0  0  0  0  0  0
    4.4826   -0.4617   -1.7290 C   0  0  0  0  0  0
   -1.6123    2.0547    1.7995 C   0  0  0  0  0  0
   -0.1542    2.1472    2.2051 C   0  0  0  0  0  0
    6.0691    2.0505   -0.1368 C   0  0  0  0  0  0
    4.1946   -0.8512   -3.1863 C   0  0  0  0  0  0
    0.7113    3.0543    1.5571 C   0  0  0  0  0  0
    0.3469    1.3153    3.2282 C   0  0  0  0  0  0
    2.0701    3.1202    1.9226 C   0  0  0  0  0  0
    1.7061    1.3811    3.5925 C   0  0  0  0  0  0
    2.5685    2.2820    2.9382 C   0  0  0  0  0  0
   -0.0035   -3.2081   -1.2927 H   0  0  0  0  0  0
   -0.1587   -3.7107    0.3782 H   0  0  0  0  0  0
   -3.8292   -2.8280    0.6153 H   0  0  0  0  0  0
   -3.7370   -3.6499   -0.9292 H   0  0  0  0  0  0
   -0.2545   -5.6737   -1.1799 H   0  0  0  0  0  0
   -1.6219   -4.9546   -1.9996 H   0  0  0  0  0  0
   -2.3942   -4.5637    1.6599 H   0  0  0  0  0  0
   -3.8335   -5.2819    0.9732 H   0  0  0  0  0  0
   -1.2261    0.2963   -2.5606 H   0  0  0  0  0  0
    0.4362   -1.3976    1.0418 H   0  0  0  0  0  0
   -4.1061   -1.4412   -1.9589 H   0  0  0  0  0  0
    0.8674    1.5549   -2.9335 H   0  0  0  0  0  0
    2.5237   -0.1395    0.6756 H   0  0  0  0  0  0
   -4.2417    2.1733    1.4478 H   0  0  0  0  0  0
   -6.0988    0.0132   -1.7652 H   0  0  0  0  0  0
   -6.1624    1.8199   -0.0572 H   0  0  0  0  0  0
    6.3069    1.2377   -2.1234 H   0  0  0  0  0  0
    5.3943    2.7051   -2.0862 H   0  0  0  0  0  0
    5.5059   -0.7478   -1.4820 H   0  0  0  0  0  0
    3.8711   -1.0602   -1.0578 H   0  0  0  0  0  0
   -1.7994    2.7451    0.9746 H   0  0  0  0  0  0
   -2.2298    2.3707    2.6410 H   0  0  0  0  0  0
    6.9985    2.6187   -0.1766 H   0  0  0  0  0  0
    5.3514    2.6303    0.4448 H   0  0  0  0  0  0
    6.2684    1.1248    0.4036 H   0  0  0  0  0  0
    4.3732   -1.9149   -3.3441 H   0  0  0  0  0  0
    3.1587   -0.6476   -3.4583 H   0  0  0  0  0  0
    4.8364   -0.3016   -3.8754 H   0  0  0  0  0  0
    0.3419    3.6936    0.7687 H   0  0  0  0  0  0
   -0.3094    0.6181    3.7282 H   0  0  0  0  0  0
    2.7314    3.8088    1.4173 H   0  0  0  0  0  0
    2.0875    0.7385    4.3723 H   0  0  0  0  0  0
    3.6115    2.3304    3.2147 H   0  0  0  0  0  0
   -2.0530   -5.6879   -0.0801 N   0  3  0  0  0  0
   -1.5149   -6.2472    0.5665 H   0  0  0  0  0  0
   -2.6497   -6.3063   -0.6111 H   0  0  0  0  0  0
  1 12  1  0  0  0
  1 25  1  0  0  0
  2 21  2  0  0  0
  3 21  1  0  0  0
  3 23  1  0  0  0
  3 24  1  0  0  0
  4  5  1  0  0  0
  4  6  1  0  0  0
  4  9  2  0  0  0
  5  7  1  0  0  0
  5 34  1  0  0  0
  5 35  1  0  0  0
  6  8  1  0  0  0
  6 36  1  0  0  0
  6 37  1  0  0  0
  7 38  1  0  0  0
  7 39  1  0  0  0
  7 67  1  0  0  0
  8 40  1  0  0  0
  8 41  1  0  0  0
  8 67  1  0  0  0
  9 10  1  0  0  0
  9 11  1  0  0  0
 10 13  2  0  0  0
 10 14  1  0  0  0
 11 12  1  0  0  0
 11 15  2  0  0  0
 12 19  2  0  0  0
 13 17  1  0  0  0
 13 42  1  0  0  0
 14 18  2  0  0  0
 14 43  1  0  0  0
 15 20  1  0  0  0
 15 44  1  0  0  0
 16 17  2  0  0  0
 16 18  1  0  0  0
 16 21  1  0  0  0
 17 45  1  0  0  0
 18 46  1  0  0  0
 19 22  1  0  0  0
 19 47  1  0  0  0
 20 22  2  0  0  0
 20 48  1  0  0  0
 22 49  1  0  0  0
 23 27  1  0  0  0
 23 50  1  0  0  0
 23 51  1  0  0  0
 24 28  1  0  0  0
 24 52  1  0  0  0
 24 53  1  0  0  0
 25 26  1  0  0  0
 25 54  1  0  0  0
 25 55  1  0  0  0
 26 29  2  0  0  0
 26 30  1  0  0  0
 27 56  1  0  0  0
 27 57  1  0  0  0
 27 58  1  0  0  0
 28 59  1  0  0  0
 28 60  1  0  0  0
 28 61  1  0  0  0
 29 31  1  0  0  0
 29 62  1  0  0  0
 30 32  2  0  0  0
 30 63  1  0  0  0
 31 33  2  0  0  0
 31 64  1  0  0  0
 32 33  1  0  0  0
 32 65  1  0  0  0
 33 66  1  0  0  0
 67 68  1  0  0  0
 67 69  1  0  0  0
M  CHG  1  67   1
M  END
> <LID>
L023466

> <PC_CID>
11293990

> <Names>


> <CAS_Numbers>


$$$$
10075898
                    3D
 Structure written by MMmdl.
 73 76  0  0  1  0            999 V2000
    4.1901   -6.1233    0.8662 S   0  0  0  0  0  0
    2.3513    6.3655   -1.4262 S   0  0  0  0  0  0
   -5.5485    1.3634   -0.0493 O   0  0  0  0  0  0
    3.7182    6.4488   -0.8899 O   0  0  0  0  0  0
    2.0805    6.6546   -2.8421 O   0  0  0  0  0  0
    1.8102    4.7339   -1.1743 N   0  0  0  0  0  0
   -5.5799   -0.9085   -0.2149 N   0  0  0  0  0  0
    3.0463   -0.6823    1.1873 C   0  0  0  0  0  0
    0.9745   -2.0963    0.9865 C   0  0  0  0  0  0
    3.7239   -1.5794    0.1371 C   0  0  0  0  0  0
    1.6902   -2.9579   -0.0658 C   0  0  0  0  0  0
    1.5315   -0.6768    1.0101 C   0  0  0  0  0  0
    0.7776    0.4456    0.8804 C   0  0  0  0  0  0
    3.8886   -3.8560   -0.7894 C   0  0  0  0  0  0
   -0.6749    0.3805    0.6500 C   0  0  0  0  0  0
    1.3621    1.7948    0.9717 C   0  0  0  0  0  0
    3.5811   -5.2984   -0.5469 C   0  0  0  0  0  0
    1.3298    2.6558   -0.1459 C   0  0  0  0  0  0
   -1.1859   -0.0777   -0.5835 C   0  0  0  0  0  0
   -1.5703    0.8274    1.6439 C   0  0  0  0  0  0
    1.9198    2.2573    2.1827 C   0  0  0  0  0  0
    2.8256   -6.1398   -1.3239 C   0  0  0  0  0  0
    1.8647    3.9590   -0.0728 C   0  0  0  0  0  0
   -2.5752   -0.1183   -0.8080 C   0  0  0  0  0  0
   -2.9600    0.7877    1.4207 C   0  0  0  0  0  0
   -3.4716    0.2941    0.2022 C   0  0  0  0  0  0
    2.4575    3.5548    2.2655 C   0  0  0  0  0  0
    2.4332    4.4028    1.1423 C   0  0  0  0  0  0
    2.7277   -7.4582   -0.7901 C   0  0  0  0  0  0
    3.4103   -7.6057    0.3879 C   0  0  0  0  0  0
   -4.9548    0.2845   -0.0327 C   0  0  0  0  0  0
   -7.0168   -0.9600   -0.5222 C   0  0  0  0  0  0
   -4.9514   -2.2279   -0.0360 C   0  0  0  0  0  0
   -7.2686   -0.8552   -2.0328 C   0  0  0  0  0  0
   -4.8594   -2.6167    1.4469 C   0  0  0  0  0  0
    1.2060    7.3553   -0.3816 C   0  0  0  0  0  0
    3.4776    0.3151    1.1220 H   0  0  0  0  0  0
    3.2720   -1.0499    2.1891 H   0  0  0  0  0  0
    1.1278   -2.5313    1.9749 H   0  0  0  0  0  0
   -0.1002   -2.1273    0.8163 H   0  0  0  0  0  0
    3.6048   -1.1424   -0.8559 H   0  0  0  0  0  0
    4.7952   -1.6184    0.3385 H   0  0  0  0  0  0
    1.4608   -2.5893   -1.0670 H   0  0  0  0  0  0
    1.3029   -3.9753   -0.0080 H   0  0  0  0  0  0
    3.6549   -3.5855   -1.8203 H   0  0  0  0  0  0
    4.9631   -3.7094   -0.6710 H   0  0  0  0  0  0
    0.8900    2.3075   -1.0697 H   0  0  0  0  0  0
   -0.5102   -0.3982   -1.3631 H   0  0  0  0  0  0
   -1.1920    1.2029    2.5837 H   0  0  0  0  0  0
    1.9374    1.6154    3.0515 H   0  0  0  0  0  0
    2.3423   -5.8582   -2.2480 H   0  0  0  0  0  0
   -2.9500   -0.4661   -1.7600 H   0  0  0  0  0  0
   -3.6330    1.1337    2.1923 H   0  0  0  0  0  0
    2.8884    3.9018    3.1932 H   0  0  0  0  0  0
    2.8546    5.3915    1.2353 H   0  0  0  0  0  0
    2.1683   -8.2407   -1.2817 H   0  0  0  0  0  0
    3.5033   -8.4906    1.0006 H   0  0  0  0  0  0
    1.3973    4.2939   -1.9836 H   0  0  0  0  0  0
   -7.4515   -1.8868   -0.1450 H   0  0  0  0  0  0
   -7.5566   -0.1671   -0.0016 H   0  0  0  0  0  0
   -5.5298   -2.9867   -0.5650 H   0  0  0  0  0  0
   -3.9665   -2.2758   -0.4955 H   0  0  0  0  0  0
   -8.3349   -0.9109   -2.2520 H   0  0  0  0  0  0
   -6.8978    0.0893   -2.4322 H   0  0  0  0  0  0
   -6.7759   -1.6644   -2.5724 H   0  0  0  0  0  0
   -4.4296   -3.6121    1.5588 H   0  0  0  0  0  0
   -4.2314   -1.9228    2.0058 H   0  0  0  0  0  0
   -5.8448   -2.6271    1.9136 H   0  0  0  0  0  0
    1.3142    7.0732    0.6644 H   0  0  0  0  0  0
    1.4417    8.4131   -0.4947 H   0  0  0  0  0  0
    0.1794    7.1786   -0.7011 H   0  0  0  0  0  0
    3.1631   -2.9546    0.1399 N   0  3  1  0  0  0
    3.3243   -3.3218    1.0670 H   0  0  0  0  0  0
  1 17  1  0  0  0
  1 30  1  0  0  0
  2  4  2  0  0  0
  2  5  2  0  0  0
  2  6  1  0  0  0
  2 36  1  0  0  0
  3 31  2  0  0  0
  6 23  1  0  0  0
  6 58  1  0  0  0
  7 31  1  0  0  0
  7 32  1  0  0  0
  7 33  1  0  0  0
  8 10  1  0  0  0
  8 12  1  0  0  0
  8 37  1  0  0  0
  8 38  1  0  0  0
  9 11  1  0  0  0
  9 12  1  0  0  0
  9 39  1  0  0  0
  9 40  1  0  0  0
 10 41  1  0  0  0
 10 42  1  0  0  0
 10 72  1  0  0  0
 11 43  1  0  0  0
 11 44  1  0  0  0
 11 72  1  0  0  0
 12 13  2  0  0  0
 13 15  1  0  0  0
 13 16  1  0  0  0
 14 17  1  0  0  0
 14 45  1  0  0  0
 14 46  1  0  0  0
 14 72  1  0  0  0
 15 19  2  0  0  0
 15 20  1  0  0  0
 16 18  2  0  0  0
 16 21  1  0  0  0
 17 22  2  0  0  0
 18 23  1  0  0  0
 18 47  1  0  0  0
 19 24  1  0  0  0
 19 48  1  0  0  0
 20 25  2  0  0  0
 20 49  1  0  0  0
 21 27  2  0  0  0
 21 50  1  0  0  0
 22 29  1  0  0  0
 22 51  1  0  0  0
 23 28  2  0  0  0
 24 26  2  0  0  0
 24 52  1  0  0  0
 25 26  1  0  0  0
 25 53  1  0  0  0
 26 31  1  0  0  0
 27 28  1  0  0  0
 27 54  1  0  0  0
 28 55  1  0  0  0
 29 30  2  0  0  0
 29 56  1  0  0  0
 30 57  1  0  0  0
 32 34  1  0  0  0
 32 59  1  0  0  0
 32 60  1  0  0  0
 33 35  1  0  0  0
 33 61  1  0  0  0
 33 62  1  0  0  0
 34 63  1  0  0  0
 34 64  1  0  0  0
 34 65  1  0  0  0
 35 66  1  0  0  0
 35 67  1  0  0  0
 35 68  1  0  0  0
 36 69  1  0  0  0
 36 70  1  0  0  0
 36 71  1  0  0  0
 72 73  1  0  0  0
M  CHG  1  72   1
M  END
> <LID>
L023123

> <PC_CID>
10075898

> <Names>


> <CAS_Numbers>


$$$$
17876688
                    3D
 Structure written by MMmdl.
 60 63  0  0  1  0            999 V2000
   -4.1799   -3.4187   -1.2901 O   0  0  0  0  0  0
    5.0372    1.0894    1.2326 O   0  0  0  0  0  0
    2.2258    0.4996    1.1264 N   0  0  0  0  0  0
    5.3221   -0.6652   -0.1718 N   0  0  0  0  0  0
   -1.5696    0.3609    0.5993 C   0  0  2  0  0  0
   -1.4549    1.0558   -0.8079 C   0  0  1  0  0  0
   -2.8180    0.9284    1.3317 C   0  0  0  0  0  0
   -0.2906    0.6818    1.4477 C   0  0  0  0  0  0
   -1.5488    2.5948   -0.7006 C   0  0  0  0  0  0
   -0.1896    0.6324   -1.6086 C   0  0  0  0  0  0
   -2.9036    2.4666    1.3418 C   0  0  0  0  0  0
    0.9486    0.5689    0.6296 C   0  0  0  0  0  0
    1.0306    0.5484   -0.7286 C   0  0  0  0  0  0
   -1.7621   -1.1639    0.3795 C   0  0  0  0  0  0
    2.4129    0.4510   -1.0887 C   0  0  0  0  0  0
   -2.9865    4.4969   -0.0799 C   0  0  0  0  0  0
    3.1256    0.3865    0.0881 C   0  0  0  0  0  0
   -2.8827   -1.6315   -0.3533 C   0  0  0  0  0  0
   -0.8498   -2.1337    0.8728 C   0  0  0  0  0  0
    2.9519    0.4449   -2.4970 C   0  0  0  0  0  0
   -4.4463    4.9194    0.1416 C   0  0  0  0  0  0
   -3.0901   -3.0054   -0.5809 C   0  0  0  0  0  0
   -1.0548   -3.5082    0.6460 C   0  0  0  0  0  0
    4.5693    0.2988    0.4115 C   0  0  0  0  0  0
   -2.1752   -3.9475   -0.0797 C   0  0  0  0  0  0
    6.7713   -0.6977    0.0328 C   0  0  0  0  0  0
    4.7918   -1.8028   -0.9291 C   0  0  0  0  0  0
   -2.3123    0.7738   -1.4190 H   0  0  0  0  0  0
   -2.8541    0.5481    2.3534 H   0  0  0  0  0  0
   -3.7325    0.5734    0.8582 H   0  0  0  0  0  0
   -0.2362    0.0758    2.3521 H   0  0  0  0  0  0
   -0.3201    1.7059    1.8128 H   0  0  0  0  0  0
   -0.6883    3.0051   -0.1700 H   0  0  0  0  0  0
   -1.5216    3.0191   -1.7053 H   0  0  0  0  0  0
   -0.0033    1.3091   -2.4428 H   0  0  0  0  0  0
   -0.3441   -0.3565   -2.0415 H   0  0  0  0  0  0
   -3.8561    2.7498    1.7883 H   0  0  0  0  0  0
   -2.1339    2.9043    1.9773 H   0  0  0  0  0  0
   -2.3309    4.9815    0.6451 H   0  0  0  0  0  0
   -2.6838    4.8645   -1.0614 H   0  0  0  0  0  0
    2.4763    0.5122    2.1051 H   0  0  0  0  0  0
   -3.6036   -0.9371   -0.7572 H   0  0  0  0  0  0
    0.0329   -1.8597    1.4274 H   0  0  0  0  0  0
    2.4230    1.1756   -3.1087 H   0  0  0  0  0  0
    4.0120    0.6978   -2.5145 H   0  0  0  0  0  0
    2.8191   -0.5387   -2.9473 H   0  0  0  0  0  0
   -4.5575    5.9948    0.0007 H   0  0  0  0  0  0
   -5.1130    4.4254   -0.5660 H   0  0  0  0  0  0
   -4.7933    4.6915    1.1490 H   0  0  0  0  0  0
   -0.3465   -4.2279    1.0293 H   0  0  0  0  0  0
   -2.3258   -5.0035   -0.2503 H   0  0  0  0  0  0
   -4.2268   -4.3575   -1.3870 H   0  0  0  0  0  0
    7.2676   -1.3474   -0.6893 H   0  0  0  0  0  0
    7.2100    0.2953   -0.0779 H   0  0  0  0  0  0
    7.0049   -1.0649    1.0329 H   0  0  0  0  0  0
    5.3639   -2.7069   -0.7171 H   0  0  0  0  0  0
    3.7544   -2.0342   -0.6858 H   0  0  0  0  0  0
    4.8639   -1.6124   -1.9997 H   0  0  0  0  0  0
   -2.8025    3.0235   -0.0309 N   0  3  1  0  0  0
   -3.5587    2.6243   -0.5688 H   0  0  0  0  0  0
  1 22  1  0  0  0
  1 52  1  0  0  0
  2 24  2  0  0  0
  3 12  1  0  0  0
  3 17  1  0  0  0
  3 41  1  0  0  0
  4 24  1  0  0  0
  4 26  1  0  0  0
  4 27  1  0  0  0
  5  6  1  0  0  0
  5  7  1  0  0  0
  5  8  1  0  0  0
  5 14  1  0  0  0
  6  9  1  0  0  0
  6 10  1  0  0  0
  6 28  1  0  0  0
  7 11  1  0  0  0
  7 29  1  0  0  0
  7 30  1  0  0  0
  8 12  1  0  0  0
  8 31  1  0  0  0
  8 32  1  0  0  0
  9 33  1  0  0  0
  9 34  1  0  0  0
  9 59  1  0  0  0
 10 13  1  0  0  0
 10 35  1  0  0  0
 10 36  1  0  0  0
 11 37  1  0  0  0
 11 38  1  0  0  0
 11 59  1  0  0  0
 12 13  2  0  0  0
 13 15  1  0  0  0
 14 18  2  0  0  0
 14 19  1  0  0  0
 15 17  2  0  0  0
 15 20  1  0  0  0
 16 21  1  0  0  0
 16 39  1  0  0  0
 16 40  1  0  0  0
 16 59  1  0  0  0
 17 24  1  0  0  0
 18 22  1  0  0  0
 18 42  1  0  0  0
 19 23  2  0  0  0
 19 43  1  0  0  0
 20 44  1  0  0  0
 20 45  1  0  0  0
 20 46  1  0  0  0
 21 47  1  0  0  0
 21 48  1  0  0  0
 21 49  1  0  0  0
 22 25  2  0  0  0
 23 25  1  0  0  0
 23 50  1  0  0  0
 25 51  1  0  0  0
 26 53  1  0  0  0
 26 54  1  0  0  0
 26 55  1  0  0  0
 27 56  1  0  0  0
 27 57  1  0  0  0
 27 58  1  0  0  0
 59 60  1  0  0  0
M  CHG  1  59   1
M  END
> <LID>
L012495

> <PC_CID>
17876688

> <Names>


> <CAS_Numbers>


$$$$
5288826
                    3D
 Structure written by MMmdl.
 41 45  0  0  1  0            999 V2000
   -1.9708   -0.4696    1.1739 O   0  0  0  0  0  0
   -2.7307   -2.7159   -0.0954 O   0  0  0  0  0  0
   -3.6007    1.9145    0.5622 O   0  0  0  0  0  0
    0.3565   -0.6504    0.6586 C   0  0  1  0  0  0
    1.2884   -1.2708   -0.3982 C   0  0  2  0  0  0
    2.3611   -0.2088   -0.7435 C   0  0  1  0  0  0
   -0.9336   -1.4621    1.0265 C   0  0  2  0  0  0
    1.1940   -0.3510    1.9257 C   0  0  0  0  0  0
   -0.2426    0.6146    0.1095 C   0  0  0  0  0  0
    1.7388    1.1028   -1.3101 C   0  0  0  0  0  0
    2.4153    0.5421    1.6341 C   0  0  0  0  0  0
    0.3916    1.5409   -0.7351 C   0  0  0  0  0  0
   -1.3309   -2.5349   -0.0312 C   0  0  2  0  0  0
    0.4827   -1.7752   -1.5818 C   0  0  0  0  0  0
   -1.5580    0.6547    0.5235 C   0  0  0  0  0  0
   -0.7279   -2.3292   -1.4111 C   0  0  0  0  0  0
    4.4420    0.7809    0.2367 C   0  0  0  0  0  0
   -0.3683    2.6772   -1.0846 C   0  0  0  0  0  0
   -2.2993    1.8006    0.1714 C   0  0  0  0  0  0
   -1.6963    2.8172   -0.6101 C   0  0  0  0  0  0
    1.7833   -2.1507    0.0167 H   0  0  0  0  0  0
    3.0315   -0.6243   -1.4974 H   0  0  0  0  0  0
   -0.8169   -1.9642    1.9880 H   0  0  0  0  0  0
    1.5400   -1.2920    2.3556 H   0  0  0  0  0  0
    0.5743    0.1194    2.6906 H   0  0  0  0  0  0
    1.5614    0.9503   -2.3752 H   0  0  0  0  0  0
    2.4333    1.9397   -1.2592 H   0  0  0  0  0  0
    2.1041    1.5702    1.4458 H   0  0  0  0  0  0
    3.0566    0.5756    2.5156 H   0  0  0  0  0  0
   -0.9262   -3.4906    0.3039 H   0  0  0  0  0  0
    0.9093   -1.6768   -2.5694 H   0  0  0  0  0  0
   -1.2850   -2.6946   -2.2615 H   0  0  0  0  0  0
    5.0871    0.7279    1.1142 H   0  0  0  0  0  0
    4.9960    0.3612   -0.6036 H   0  0  0  0  0  0
    4.2500    1.8340    0.0320 H   0  0  0  0  0  0
    0.0487    3.4251   -1.7429 H   0  0  0  0  0  0
   -2.2713    3.6880   -0.8892 H   0  0  0  0  0  0
   -3.0514   -2.8974    0.7749 H   0  0  0  0  0  0
   -3.8956    1.1620    1.0525 H   0  0  0  0  0  0
    3.1907    0.0255    0.4778 N   0  3  2  0  0  0
    3.4985   -0.8956    0.7562 H   0  0  0  0  0  0
  1  7  1  0  0  0
  1 15  1  0  0  0
  2 13  1  0  0  0
  2 38  1  0  0  0
  3 19  1  0  0  0
  3 39  1  0  0  0
  4  5  1  0  0  0
  4  7  1  0  0  0
  4  8  1  0  0  0
  4  9  1  0  0  0
  5  6  1  0  0  0
  5 14  1  0  0  0
  5 21  1  0  0  0
  6 10  1  0  0  0
  6 22  1  0  0  0
  6 40  1  0  0  0
  7 13  1  0  0  0
  7 23  1  0  0  0
  8 11  1  0  0  0
  8 24  1  0  0  0
  8 25  1  0  0  0
  9 12  2  0  0  0
  9 15  1  0  0  0
 10 12  1  0  0  0
 10 26  1  0  0  0
 10 27  1  0  0  0
 11 28  1  0  0  0
 11 29  1  0  0  0
 11 40  1  0  0  0
 12 18  1  0  0  0
 13 16  1  0  0  0
 13 30  1  0  0  0
 14 16  2  0  0  0
 14 31  1  0  0  0
 15 19  2  0  0  0
 16 32  1  0  0  0
 17 33  1  0  0  0
 17 34  1  0  0  0
 17 35  1  0  0  0
 17 40  1  0  0  0
 18 20  2  0  0  0
 18 36  1  0  0  0
 19 20  1  0  0  0
 20 37  1  0  0  0
 40 41  1  0  0  0
M  CHG  1  40   1
M  END
> <LID>
L013411

> <PC_CID>
5288826

> <Names>
Morphine;nepenthe

> <CAS_Numbers>
6211-15-0;64-31-3

$$$$
9935787
                    3D
 Structure written by MMmdl.
 72 75  0  0  1  0            999 V2000
   -5.6444    4.5986    0.5602 S   0  0  0  0  0  0
    5.4858    0.3225   -1.4465 O   0  0  0  0  0  0
   -1.5379   -7.1751   -0.4522 O   0  0  0  0  0  0
    5.4197    2.0719    0.0109 N   0  0  0  0  0  0
   -0.3206   -5.3104   -0.9629 N   0  0  0  0  0  0
   -2.9746   -0.2511    1.1693 C   0  0  0  0  0  0
   -1.4077    1.6665    0.7236 C   0  0  0  0  0  0
   -3.9322    0.3249    0.1120 C   0  0  0  0  0  0
   -2.3915    2.1977   -0.3309 C   0  0  0  0  0  0
   -1.5325    0.1550    0.8839 C   0  0  0  0  0  0
   -4.7881    2.3744   -0.9538 C   0  0  0  0  0  0
   -0.4960   -0.7164    0.7767 C   0  0  0  0  0  0
    0.8637   -0.2657    0.4363 C   0  0  0  0  0  0
   -0.6642   -2.1626    1.0026 C   0  0  0  0  0  0
   -4.8952    3.8602   -0.8332 C   0  0  0  0  0  0
    1.1574    0.2158   -0.8577 C   0  0  0  0  0  0
    1.9011   -0.3641    1.3869 C   0  0  0  0  0  0
   -0.4361   -3.0733   -0.0510 C   0  0  0  0  0  0
   -1.0096   -2.6565    2.2786 C   0  0  0  0  0  0
   -4.4517    4.8103   -1.7182 C   0  0  0  0  0  0
    2.4645    0.6229   -1.1868 C   0  0  0  0  0  0
    3.2088    0.0425    1.0592 C   0  0  0  0  0  0
    3.4935    0.5563   -0.2242 C   0  0  0  0  0  0
   -0.5801   -4.4622    0.1479 C   0  0  0  0  0  0
   -1.1407   -4.0411    2.4921 C   0  0  0  0  0  0
   -4.7094    6.1437   -1.2844 C   0  0  0  0  0  0
   -0.9252   -4.9436    1.4335 C   0  0  0  0  0  0
   -5.3467    6.1938   -0.0732 C   0  0  0  0  0  0
    4.8858    0.9780   -0.5938 C   0  0  0  0  0  0
    6.7858    2.5081   -0.3152 C   0  0  0  0  0  0
    4.6913    2.9830    0.9102 C   0  0  0  0  0  0
    6.8313    3.3284   -1.6139 C   0  0  0  0  0  0
    5.0661    2.7752    2.3866 C   0  0  0  0  0  0
   -0.7720   -6.5573   -1.1904 C   0  0  0  0  0  0
   -0.2953   -7.2032   -2.4869 C   0  0  0  0  0  0
   -3.1049   -1.3314    1.2032 H   0  0  0  0  0  0
   -3.2459    0.1226    2.1573 H   0  0  0  0  0  0
   -1.6304    2.1236    1.6885 H   0  0  0  0  0  0
   -0.3968    1.9845    0.4752 H   0  0  0  0  0  0
   -3.7425   -0.1445   -0.8548 H   0  0  0  0  0  0
   -4.9584    0.0777    0.3870 H   0  0  0  0  0  0
   -2.3095    3.2840   -0.3707 H   0  0  0  0  0  0
   -2.1161    1.8240   -1.3185 H   0  0  0  0  0  0
   -4.5381    2.0930   -1.9779 H   0  0  0  0  0  0
   -5.7682    1.9417   -0.7485 H   0  0  0  0  0  0
    0.3776    0.2734   -1.6031 H   0  0  0  0  0  0
    1.6964   -0.7568    2.3723 H   0  0  0  0  0  0
   -0.1556   -2.6982   -1.0249 H   0  0  0  0  0  0
   -1.1703   -1.9725    3.0992 H   0  0  0  0  0  0
   -3.9542    4.5978   -2.6533 H   0  0  0  0  0  0
    2.6735    0.9908   -2.1812 H   0  0  0  0  0  0
    3.9933   -0.0581    1.7938 H   0  0  0  0  0  0
   -1.3997   -4.4132    3.4724 H   0  0  0  0  0  0
   -4.4227    7.0068   -1.8673 H   0  0  0  0  0  0
   -1.0126   -6.0001    1.6349 H   0  0  0  0  0  0
   -5.6590    7.0659    0.4826 H   0  0  0  0  0  0
    0.2269   -4.8989   -1.7044 H   0  0  0  0  0  0
    7.1941    3.1097    0.4972 H   0  0  0  0  0  0
    7.4508    1.6463   -0.3957 H   0  0  0  0  0  0
    4.9238    4.0112    0.6299 H   0  0  0  0  0  0
    3.6108    2.9044    0.7892 H   0  0  0  0  0  0
    7.8484    3.6585   -1.8256 H   0  0  0  0  0  0
    6.4909    2.7442   -2.4692 H   0  0  0  0  0  0
    6.2033    4.2169   -1.5439 H   0  0  0  0  0  0
    4.5119    3.4662    3.0221 H   0  0  0  0  0  0
    4.8409    1.7668    2.7281 H   0  0  0  0  0  0
    6.1270    2.9527    2.5619 H   0  0  0  0  0  0
   -0.6817   -8.2188   -2.5788 H   0  0  0  0  0  0
   -0.6385   -6.6288   -3.3477 H   0  0  0  0  0  0
    0.7937   -7.2500   -2.5125 H   0  0  0  0  0  0
   -3.7896    1.7973   -0.0198 N   0  3  1  0  0  0
   -4.0030    2.1826    0.8893 H   0  0  0  0  0  0
  1 15  1  0  0  0
  1 28  1  0  0  0
  2 29  2  0  0  0
  3 34  2  0  0  0
  4 29  1  0  0  0
  4 30  1  0  0  0
  4 31  1  0  0  0
  5 24  1  0  0  0
  5 34  1  0  0  0
  5 57  1  0  0  0
  6  8  1  0  0  0
  6 10  1  0  0  0
  6 36  1  0  0  0
  6 37  1  0  0  0
  7  9  1  0  0  0
  7 10  1  0  0  0
  7 38  1  0  0  0
  7 39  1  0  0  0
  8 40  1  0  0  0
  8 41  1  0  0  0
  8 71  1  0  0  0
  9 42  1  0  0  0
  9 43  1  0  0  0
  9 71  1  0  0  0
 10 12  2  0  0  0
 11 15  1  0  0  0
 11 44  1  0  0  0
 11 45  1  0  0  0
 11 71  1  0  0  0
 12 13  1  0  0  0
 12 14  1  0  0  0
 13 16  2  0  0  0
 13 17  1  0  0  0
 14 18  2  0  0  0
 14 19  1  0  0  0
 15 20  2  0  0  0
 16 21  1  0  0  0
 16 46  1  0  0  0
 17 22  2  0  0  0
 17 47  1  0  0  0
 18 24  1  0  0  0
 18 48  1  0  0  0
 19 25  2  0  0  0
 19 49  1  0  0  0
 20 26  1  0  0  0
 20 50  1  0  0  0
 21 23  2  0  0  0
 21 51  1  0  0  0
 22 23  1  0  0  0
 22 52  1  0  0  0
 23 29  1  0  0  0
 24 27  2  0  0  0
 25 27  1  0  0  0
 25 53  1  0  0  0
 26 28  2  0  0  0
 26 54  1  0  0  0
 27 55  1  0  0  0
 28 56  1  0  0  0
 30 32  1  0  0  0
 30 58  1  0  0  0
 30 59  1  0  0  0
 31 33  1  0  0  0
 31 60  1  0  0  0
 31 61  1  0  0  0
 32 62  1  0  0  0
 32 63  1  0  0  0
 32 64  1  0  0  0
 33 65  1  0  0  0
 33 66  1  0  0  0
 33 67  1  0  0  0
 34 35  1  0  0  0
 35 68  1  0  0  0
 35 69  1  0  0  0
 35 70  1  0  0  0
 71 72  1  0  0  0
M  CHG  1  71   1
M  END
> <LID>
L023127

> <PC_CID>
9935787

> <Names>


> <CAS_Numbers>


$$$$
19390764
                    3D
 Structure written by MMmdl.
 53 57  0  0  1  0            999 V2000
    3.4880    3.8546    1.5400 O   0  0  0  0  0  0
   -2.3807   -0.3592   -1.6379 N   0  0  0  0  0  0
    1.3069   -0.0764   -0.5714 C   0  0  1  0  0  0
    1.0271   -0.7383    0.8267 C   0  0  2  0  0  0
    2.6631   -0.6119   -1.1106 C   0  0  0  0  0  0
    0.1662   -0.4724   -1.5706 C   0  0  0  0  0  0
    1.1913   -2.2746    0.7831 C   0  0  0  0  0  0
   -0.3500   -0.3423    1.4295 C   0  0  0  0  0  0
    2.8062   -2.1450   -1.0603 C   0  0  0  0  0  0
   -1.1844   -0.3793   -0.9449 C   0  0  0  0  0  0
   -1.4349   -0.3282    0.3962 C   0  0  0  0  0  0
    1.4133    1.4602   -0.3784 C   0  0  0  0  0  0
   -2.8621   -0.2566    0.5491 C   0  0  0  0  0  0
    2.7699   -4.1318    0.4237 C   0  0  0  0  0  0
   -3.4424   -0.2781   -0.7558 C   0  0  0  0  0  0
    2.4005    1.9920    0.4900 C   0  0  0  0  0  0
    0.5503    2.3793   -1.0316 C   0  0  0  0  0  0
   -3.7460   -0.1765    1.6511 C   0  0  0  0  0  0
    4.2610   -4.4995    0.4154 C   0  0  0  0  0  0
    2.5263    3.3789    0.6972 C   0  0  0  0  0  0
   -4.8341   -0.2231   -0.9523 C   0  0  0  0  0  0
    0.6739    3.7667   -0.8256 C   0  0  0  0  0  0
    1.6619    4.2700    0.0378 C   0  0  0  0  0  0
   -5.1422   -0.1204    1.4627 C   0  0  0  0  0  0
   -5.6868   -0.1436    0.1641 C   0  0  0  0  0  0
    1.7815   -0.4062    1.5400 H   0  0  0  0  0  0
    3.4907   -0.2068   -0.5294 H   0  0  0  0  0  0
    2.8237   -0.2577   -2.1297 H   0  0  0  0  0  0
    0.2804   -1.5063   -1.8886 H   0  0  0  0  0  0
    0.2212    0.0987   -2.4975 H   0  0  0  0  0  0
    1.0435   -2.6722    1.7882 H   0  0  0  0  0  0
    0.4270   -2.7345    0.1550 H   0  0  0  0  0  0
   -0.2704    0.6548    1.8641 H   0  0  0  0  0  0
   -0.6139   -1.0019    2.2566 H   0  0  0  0  0  0
    2.1468   -2.6302   -1.7797 H   0  0  0  0  0  0
    3.8204   -2.4007   -1.3649 H   0  0  0  0  0  0
   -2.4426   -0.3957   -2.6452 H   0  0  0  0  0  0
    2.3499   -4.4854    1.3663 H   0  0  0  0  0  0
    2.2379   -4.6622   -0.3676 H   0  0  0  0  0  0
    3.0794    1.3379    1.0157 H   0  0  0  0  0  0
   -0.2322    2.0554   -1.6984 H   0  0  0  0  0  0
   -3.3434   -0.1577    2.6530 H   0  0  0  0  0  0
    4.3919   -5.5653    0.6042 H   0  0  0  0  0  0
    4.7336   -4.2843   -0.5425 H   0  0  0  0  0  0
    4.8060   -3.9599    1.1906 H   0  0  0  0  0  0
   -5.2456   -0.2413   -1.9506 H   0  0  0  0  0  0
    0.0050    4.4472   -1.3317 H   0  0  0  0  0  0
    1.7506    5.3355    0.1914 H   0  0  0  0  0  0
   -5.7980   -0.0592    2.3189 H   0  0  0  0  0  0
   -6.7573   -0.1004    0.0257 H   0  0  0  0  0  0
    3.4882    4.7969    1.6104 H   0  0  0  0  0  0
    2.5397   -2.6691    0.3032 N   0  3  2  0  0  0
    3.2000   -2.2249    0.9254 H   0  0  0  0  0  0
  1 20  1  0  0  0
  1 51  1  0  0  0
  2 10  1  0  0  0
  2 15  1  0  0  0
  2 37  1  0  0  0
  3  4  1  0  0  0
  3  5  1  0  0  0
  3  6  1  0  0  0
  3 12  1  0  0  0
  4  7  1  0  0  0
  4  8  1  0  0  0
  4 26  1  0  0  0
  5  9  1  0  0  0
  5 27  1  0  0  0
  5 28  1  0  0  0
  6 10  1  0  0  0
  6 29  1  0  0  0
  6 30  1  0  0  0
  7 31  1  0  0  0
  7 32  1  0  0  0
  7 52  1  0  0  0
  8 11  1  0  0  0
  8 33  1  0  0  0
  8 34  1  0  0  0
  9 35  1  0  0  0
  9 36  1  0  0  0
  9 52  1  0  0  0
 10 11  2  0  0  0
 11 13  1  0  0  0
 12 16  2  0  0  0
 12 17  1  0  0  0
 13 15  1  0  0  0
 13 18  2  0  0  0
 14 19  1  0  0  0
 14 38  1  0  0  0
 14 39  1  0  0  0
 14 52  1  0  0  0
 15 21  2  0  0  0
 16 20  1  0  0  0
 16 40  1  0  0  0
 17 22  2  0  0  0
 17 41  1  0  0  0
 18 24  1  0  0  0
 18 42  1  0  0  0
 19 43  1  0  0  0
 19 44  1  0  0  0
 19 45  1  0  0  0
 20 23  2  0  0  0
 21 25  1  0  0  0
 21 46  1  0  0  0
 22 23  1  0  0  0
 22 47  1  0  0  0
 23 48  1  0  0  0
 24 25  2  0  0  0
 24 49  1  0  0  0
 25 50  1  0  0  0
 52 53  1  0  0  0
M  CHG  1  52   1
M  END
> <LID>
L008273

> <PC_CID>
19390764

> <Names>


> <CAS_Numbers>


$$$$
19435583
                    3D
 Structure written by MMmdl.
 53 57  0  0  1  0            999 V2000
   -4.2638   -3.0000    1.6773 O   0  0  0  0  0  0
    1.9357    0.3477   -1.8798 N   0  0  0  0  0  0
   -1.6392    0.6231   -0.4790 C   0  0  1  0  0  0
   -1.1288    1.1527    0.9115 C   0  0  1  0  0  0
   -2.9275    1.4033   -0.8688 C   0  0  0  0  0  0
   -0.5391    0.8779   -1.5659 C   0  0  0  0  0  0
    0.2084    0.5026    1.3645 C   0  0  0  0  0  0
   -1.0334    2.6951    0.9438 C   0  0  0  0  0  0
   -2.8028    2.9339   -0.7455 C   0  0  0  0  0  0
    0.8254    0.5285   -1.0757 C   0  0  0  0  0  0
    1.1801    0.3644    0.2324 C   0  0  0  0  0  0
   -1.9875   -0.8829   -0.3359 C   0  0  0  0  0  0
    2.5822    0.0489    0.2456 C   0  0  0  0  0  0
    3.0410    0.0444   -1.1064 C   0  0  0  0  0  0
   -2.3102    4.7932    0.7870 C   0  0  0  0  0  0
   -2.9713   -1.2896    0.6011 C   0  0  0  0  0  0
   -1.3533   -1.8957   -1.1028 C   0  0  0  0  0  0
    3.5321   -0.2357    1.2545 C   0  0  0  0  0  0
    4.3803   -0.2292   -1.4361 C   0  0  0  0  0  0
   -3.3124   -2.6456    0.7660 C   0  0  0  0  0  0
   -1.6923   -3.2525   -0.9393 C   0  0  0  0  0  0
    4.8786   -0.5143    0.9353 C   0  0  0  0  0  0
   -2.6726   -3.6308   -0.0061 C   0  0  0  0  0  0
    5.3013   -0.5089   -0.4100 C   0  0  0  0  0  0
    5.8715   -0.8127    2.0398 C   0  0  0  0  0  0
   -1.8632    0.9115    1.6800 H   0  0  0  0  0  0
   -3.7586    1.1096   -0.2287 H   0  0  0  0  0  0
   -3.2326    1.1360   -1.8814 H   0  0  0  0  0  0
   -0.5033    1.9321   -1.8312 H   0  0  0  0  0  0
   -0.7710    0.3749   -2.5048 H   0  0  0  0  0  0
   -0.0007   -0.4893    1.7667 H   0  0  0  0  0  0
    0.6520    1.0647    2.1868 H   0  0  0  0  0  0
   -0.7404    3.0166    1.9443 H   0  0  0  0  0  0
   -0.2584    3.0547    0.2654 H   0  0  0  0  0  0
   -2.1369    3.3427   -1.5053 H   0  0  0  0  0  0
   -3.7796    3.3842   -0.9274 H   0  0  0  0  0  0
    1.9146    0.4278   -2.8862 H   0  0  0  0  0  0
   -3.2948    5.2207    0.5943 H   0  0  0  0  0  0
   -2.0324    5.0507    1.8097 H   0  0  0  0  0  0
   -1.5951    5.2628    0.1101 H   0  0  0  0  0  0
   -3.4809   -0.5612    1.2133 H   0  0  0  0  0  0
   -0.5882   -1.6705   -1.8279 H   0  0  0  0  0  0
    3.2151   -0.2386    2.2870 H   0  0  0  0  0  0
    4.7004   -0.2247   -2.4674 H   0  0  0  0  0  0
   -1.1953   -4.0062   -1.5322 H   0  0  0  0  0  0
   -2.9271   -4.6737    0.1143 H   0  0  0  0  0  0
    6.3317   -0.7186   -0.6578 H   0  0  0  0  0  0
    6.6729   -1.4589    1.6800 H   0  0  0  0  0  0
    6.3150    0.1131    2.4067 H   0  0  0  0  0  0
    5.3837   -1.3155    2.8755 H   0  0  0  0  0  0
   -4.4180   -3.9317    1.7113 H   0  0  0  0  0  0
   -2.3313    3.3256    0.6033 N   0  3  2  0  0  0
   -3.0077    2.9654    1.2618 H   0  0  0  0  0  0
  1 20  1  0  0  0
  1 51  1  0  0  0
  2 10  1  0  0  0
  2 14  1  0  0  0
  2 37  1  0  0  0
  3  4  1  0  0  0
  3  5  1  0  0  0
  3  6  1  0  0  0
  3 12  1  0  0  0
  4  7  1  0  0  0
  4  8  1  0  0  0
  4 26  1  0  0  0
  5  9  1  0  0  0
  5 27  1  0  0  0
  5 28  1  0  0  0
  6 10  1  0  0  0
  6 29  1  0  0  0
  6 30  1  0  0  0
  7 11  1  0  0  0
  7 31  1  0  0  0
  7 32  1  0  0  0
  8 33  1  0  0  0
  8 34  1  0  0  0
  8 52  1  0  0  0
  9 35  1  0  0  0
  9 36  1  0  0  0
  9 52  1  0  0  0
 10 11  2  0  0  0
 11 13  1  0  0  0
 12 16  2  0  0  0
 12 17  1  0  0  0
 13 14  2  0  0  0
 13 18  1  0  0  0
 14 19  1  0  0  0
 15 38  1  0  0  0
 15 39  1  0  0  0
 15 40  1  0  0  0
 15 52  1  0  0  0
 16 20  1  0  0  0
 16 41  1  0  0  0
 17 21  2  0  0  0
 17 42  1  0  0  0
 18 22  2  0  0  0
 18 43  1  0  0  0
 19 24  2  0  0  0
 19 44  1  0  0  0
 20 23  2  0  0  0
 21 23  1  0  0  0
 21 45  1  0  0  0
 22 24  1  0  0  0
 22 25  1  0  0  0
 23 46  1  0  0  0
 24 47  1  0  0  0
 25 48  1  0  0  0
 25 49  1  0  0  0
 25 50  1  0  0  0
 52 53  1  0  0  0
M  CHG  1  52   1
M  END
> <LID>
L008277

> <PC_CID>
19435583

> <Names>


> <CAS_Numbers>


$$$$
11453645
                    3D
 Structure written by MMmdl.
 72 75  0  0  1  0            999 V2000
    3.4222    1.0690   -0.4772 O   0  0  0  0  0  0
   -5.7263    0.8302    0.9516 O   0  0  0  0  0  0
   -4.5612    2.5296   -0.0206 N   0  0  0  0  0  0
    4.5805    1.8314   -0.1475 C   0  0  0  0  0  0
    5.0691    2.4989   -1.4453 C   0  0  0  0  0  0
    4.2469    2.9065    0.9099 C   0  0  0  0  0  0
    6.2799    3.4107   -1.1864 C   0  0  0  0  0  0
    5.4548    3.8190    1.1778 C   0  0  0  0  0  0
    5.9600    4.4702   -0.1197 C   0  0  0  0  0  0
   -0.1191   -3.5401    0.1164 C   0  0  0  0  0  0
   -1.4169   -4.2670   -0.2308 C   0  0  0  0  0  0
    1.0844   -4.4776    0.0386 C   0  0  0  0  0  0
    2.9733    0.0873    0.3829 C   0  0  0  0  0  0
   -0.0440   -2.2240    0.4432 C   0  0  0  0  0  0
   -1.3069   -4.9838   -1.5865 C   0  0  0  0  0  0
    1.1385   -5.2000   -1.3192 C   0  0  0  0  0  0
    1.2260   -1.5847    0.8281 C   0  0  0  0  0  0
    1.7717   -0.5591    0.0276 C   0  0  0  0  0  0
   -1.2336   -1.3571    0.4448 C   0  0  0  0  0  0
    3.6332   -0.3098    1.5731 C   0  0  0  0  0  0
    1.8879   -1.9559    2.0170 C   0  0  0  0  0  0
    3.0892   -1.3234    2.3845 C   0  0  0  0  0  0
   -1.7472   -0.8617    1.6615 C   0  0  0  0  0  0
   -1.8465   -0.9784   -0.7689 C   0  0  0  0  0  0
   -3.4768    0.3721    0.4528 C   0  0  0  0  0  0
   -2.8694   -0.0111    1.6669 C   0  0  0  0  0  0
   -2.9682   -0.1274   -0.7651 C   0  0  0  0  0  0
   -4.6796    1.2692    0.4734 C   0  0  0  0  0  0
   -5.7196    3.4353   -0.0329 C   0  0  0  0  0  0
   -3.2999    3.1525   -0.4569 C   0  0  0  0  0  0
   -5.9394    4.1032    1.3335 C   0  0  0  0  0  0
   -3.1730    3.2099   -1.9878 C   0  0  0  0  0  0
    5.3844    1.1831    0.2024 H   0  0  0  0  0  0
    4.2605    3.0843   -1.8851 H   0  0  0  0  0  0
    5.3316    1.7360   -2.1789 H   0  0  0  0  0  0
    3.9250    2.4480    1.8443 H   0  0  0  0  0  0
    3.4070    3.5097    0.5628 H   0  0  0  0  0  0
    7.1284    2.8079   -0.8604 H   0  0  0  0  0  0
    6.5844    3.8970   -2.1136 H   0  0  0  0  0  0
    5.1851    4.5905    1.8996 H   0  0  0  0  0  0
    6.2578    3.2374    1.6324 H   0  0  0  0  0  0
    5.2030    5.1561   -0.5023 H   0  0  0  0  0  0
    6.8461    5.0715    0.0856 H   0  0  0  0  0  0
   -2.2840   -3.6090   -0.2338 H   0  0  0  0  0  0
   -1.6072   -5.0010    0.5532 H   0  0  0  0  0  0
    0.9996   -5.2085    0.8437 H   0  0  0  0  0  0
    2.0287   -3.9584    0.1939 H   0  0  0  0  0  0
   -1.2159   -4.2532   -2.3917 H   0  0  0  0  0  0
   -2.2097   -5.5627   -1.7827 H   0  0  0  0  0  0
    1.9479   -5.9305   -1.3268 H   0  0  0  0  0  0
    1.3494   -4.4845   -2.1154 H   0  0  0  0  0  0
    1.2622   -0.2611   -0.8773 H   0  0  0  0  0  0
    4.5551    0.1494    1.8937 H   0  0  0  0  0  0
    1.4749   -2.7284    2.6494 H   0  0  0  0  0  0
    3.5946   -1.6145    3.2936 H   0  0  0  0  0  0
   -1.2822   -1.1371    2.5970 H   0  0  0  0  0  0
   -1.4595   -1.3464   -1.7079 H   0  0  0  0  0  0
   -3.2563    0.3541    2.6075 H   0  0  0  0  0  0
   -3.4404    0.1305   -1.7010 H   0  0  0  0  0  0
   -5.5845    4.2102   -0.7879 H   0  0  0  0  0  0
   -6.6202    2.8966   -0.3332 H   0  0  0  0  0  0
   -3.2559    4.1684   -0.0620 H   0  0  0  0  0  0
   -2.4272    2.6560   -0.0324 H   0  0  0  0  0  0
   -6.7891    4.7851    1.2969 H   0  0  0  0  0  0
   -6.1424    3.3668    2.1115 H   0  0  0  0  0  0
   -5.0657    4.6798    1.6380 H   0  0  0  0  0  0
   -2.2337    3.6824   -2.2756 H   0  0  0  0  0  0
   -3.1899    2.2188   -2.4368 H   0  0  0  0  0  0
   -3.9794    3.7891   -2.4372 H   0  0  0  0  0  0
   -0.1370   -5.8877   -1.6149 N   0  3  0  0  0  0
   -0.0752   -6.3177   -2.5270 H   0  0  0  0  0  0
   -0.2766   -6.6115   -0.9242 H   0  0  0  0  0  0
  1  4  1  0  0  0
  1 13  1  0  0  0
  2 28  2  0  0  0
  3 28  1  0  0  0
  3 29  1  0  0  0
  3 30  1  0  0  0
  4  5  1  0  0  0
  4  6  1  0  0  0
  4 33  1  0  0  0
  5  7  1  0  0  0
  5 34  1  0  0  0
  5 35  1  0  0  0
  6  8  1  0  0  0
  6 36  1  0  0  0
  6 37  1  0  0  0
  7  9  1  0  0  0
  7 38  1  0  0  0
  7 39  1  0  0  0
  8  9  1  0  0  0
  8 40  1  0  0  0
  8 41  1  0  0  0
  9 42  1  0  0  0
  9 43  1  0  0  0
 10 11  1  0  0  0
 10 12  1  0  0  0
 10 14  2  0  0  0
 11 15  1  0  0  0
 11 44  1  0  0  0
 11 45  1  0  0  0
 12 16  1  0  0  0
 12 46  1  0  0  0
 12 47  1  0  0  0
 13 18  1  0  0  0
 13 20  2  0  0  0
 14 17  1  0  0  0
 14 19  1  0  0  0
 15 48  1  0  0  0
 15 49  1  0  0  0
 15 70  1  0  0  0
 16 50  1  0  0  0
 16 51  1  0  0  0
 16 70  1  0  0  0
 17 18  2  0  0  0
 17 21  1  0  0  0
 18 52  1  0  0  0
 19 23  2  0  0  0
 19 24  1  0  0  0
 20 22  1  0  0  0
 20 53  1  0  0  0
 21 22  2  0  0  0
 21 54  1  0  0  0
 22 55  1  0  0  0
 23 26  1  0  0  0
 23 56  1  0  0  0
 24 27  2  0  0  0
 24 57  1  0  0  0
 25 26  2  0  0  0
 25 27  1  0  0  0
 25 28  1  0  0  0
 26 58  1  0  0  0
 27 59  1  0  0  0
 29 31  1  0  0  0
 29 60  1  0  0  0
 29 61  1  0  0  0
 30 32  1  0  0  0
 30 62  1  0  0  0
 30 63  1  0  0  0
 31 64  1  0  0  0
 31 65  1  0  0  0
 31 66  1  0  0  0
 32 67  1  0  0  0
 32 68  1  0  0  0
 32 69  1  0  0  0
 70 71  1  0  0  0
 70 72  1  0  0  0
M  CHG  1  70   1
M  END
> <LID>
L023453

> <PC_CID>
11453645

> <Names>


> <CAS_Numbers>


$$$$
21184575
                    3D
 Structure written by MMmdl.
 53 55  0  0  1  0            999 V2000
   -4.5939    1.8006    1.5963 O   0  0  0  0  0  0
    4.2333   -3.6169    1.5039 O   0  0  0  0  0  0
   -4.8642    0.0236    0.2151 N   0  0  0  0  0  0
   -6.7835   -1.1316   -0.6145 C   0  0  0  0  0  0
   -5.6301   -1.3393   -1.5853 C   0  0  0  0  0  0
   -6.3262    0.0400    0.2548 C   0  0  0  0  0  0
   -4.3953   -0.9502   -0.7734 C   0  0  0  0  0  0
   -4.1064    0.9002    0.9123 C   0  0  0  0  0  0
   -2.6109    0.7795    0.8215 C   0  0  0  0  0  0
   -1.8389    1.9078    0.4758 C   0  0  0  0  0  0
   -1.9538   -0.4289    1.1396 C   0  0  0  0  0  0
    0.2284    0.6060    0.7056 C   0  0  0  0  0  0
    1.7038    0.5003    0.6532 C   0  0  0  0  0  0
   -0.4349    1.8204    0.4131 C   0  0  0  0  0  0
   -0.5499   -0.5144    1.0755 C   0  0  0  0  0  0
    2.3028   -0.7617    0.1864 C   0  0  0  0  0  0
    2.4806    1.5490    1.0059 C   0  0  0  0  0  0
    4.0006    1.6171    0.9696 C   0  0  0  0  0  0
    2.9990   -1.6032    1.0815 C   0  0  0  0  0  0
    2.1506   -1.1588   -1.1591 C   0  0  0  0  0  0
    3.5556   -2.8163    0.6316 C   0  0  0  0  0  0
    5.8913    2.9731    0.1822 C   0  0  0  0  0  0
    4.1886    2.2334   -1.4184 C   0  0  0  0  0  0
    2.7059   -2.3718   -1.6101 C   0  0  0  0  0  0
    3.4106   -3.2003   -0.7159 C   0  0  0  0  0  0
   -6.9057   -2.0219    0.0039 H   0  0  0  0  0  0
   -7.7319   -0.9407   -1.1175 H   0  0  0  0  0  0
   -5.5794   -2.3576   -1.9721 H   0  0  0  0  0  0
   -5.7400   -0.6632   -2.4343 H   0  0  0  0  0  0
   -6.6848    0.9835   -0.1601 H   0  0  0  0  0  0
   -6.7056   -0.0474    1.2740 H   0  0  0  0  0  0
   -4.0014   -1.8266   -0.2582 H   0  0  0  0  0  0
   -3.6113   -0.5487   -1.4175 H   0  0  0  0  0  0
   -2.3224    2.8473    0.2488 H   0  0  0  0  0  0
   -2.5204   -1.2965    1.4448 H   0  0  0  0  0  0
    0.1252    2.6979    0.1262 H   0  0  0  0  0  0
   -0.0735   -1.4513    1.3248 H   0  0  0  0  0  0
    2.0098    2.4577    1.3513 H   0  0  0  0  0  0
    4.3338    1.8977    1.9695 H   0  0  0  0  0  0
    4.4595    0.6541    0.7481 H   0  0  0  0  0  0
    3.1080   -1.3160    2.1174 H   0  0  0  0  0  0
    1.6077   -0.5306   -1.8504 H   0  0  0  0  0  0
    6.1951    3.7603   -0.5087 H   0  0  0  0  0  0
    6.0633    3.3395    1.1949 H   0  0  0  0  0  0
    6.5343    2.1072    0.0179 H   0  0  0  0  0  0
    4.5219    3.0107   -2.1070 H   0  0  0  0  0  0
    4.7030    1.3067   -1.6769 H   0  0  0  0  0  0
    3.1213    2.0873   -1.5861 H   0  0  0  0  0  0
    2.5891   -2.6680   -2.6422 H   0  0  0  0  0  0
    3.8340   -4.1299   -1.0675 H   0  0  0  0  0  0
    4.5579   -4.4108    1.1072 H   0  0  0  0  0  0
    4.4677    2.6221   -0.0158 N   0  3  0  0  0  0
    3.9427    3.4667    0.1625 H   0  0  0  0  0  0
  1  8  2  0  0  0
  2 21  1  0  0  0
  2 51  1  0  0  0
  3  6  1  0  0  0
  3  7  1  0  0  0
  3  8  1  0  0  0
  4  5  1  0  0  0
  4  6  1  0  0  0
  4 26  1  0  0  0
  4 27  1  0  0  0
  5  7  1  0  0  0
  5 28  1  0  0  0
  5 29  1  0  0  0
  6 30  1  0  0  0
  6 31  1  0  0  0
  7 32  1  0  0  0
  7 33  1  0  0  0
  8  9  1  0  0  0
  9 10  2  0  0  0
  9 11  1  0  0  0
 10 14  1  0  0  0
 10 34  1  0  0  0
 11 15  2  0  0  0
 11 35  1  0  0  0
 12 13  1  0  0  0
 12 14  2  0  0  0
 12 15  1  0  0  0
 13 16  1  0  0  0
 13 17  2  0  0  0
 14 36  1  0  0  0
 15 37  1  0  0  0
 16 19  2  0  0  0
 16 20  1  0  0  0
 17 18  1  0  0  0
 17 38  1  0  0  0
 18 39  1  0  0  0
 18 40  1  0  0  0
 18 52  1  0  0  0
 19 21  1  0  0  0
 19 41  1  0  0  0
 20 24  2  0  0  0
 20 42  1  0  0  0
 21 25  2  0  0  0
 22 43  1  0  0  0
 22 44  1  0  0  0
 22 45  1  0  0  0
 22 52  1  0  0  0
 23 46  1  0  0  0
 23 47  1  0  0  0
 23 48  1  0  0  0
 23 52  1  0  0  0
 24 25  1  0  0  0
 24 49  1  0  0  0
 25 50  1  0  0  0
 52 53  1  0  0  0
M  CHG  1  52   1
M  END
> <LID>
L016382

> <PC_CID>
21184575

> <Names>


> <CAS_Numbers>


$$$$
20779984
                    3D
 Structure written by MMmdl.
 74 78  0  0  1  0            999 V2000
   -2.6375    2.4284   -1.3034 O   0  0  0  0  0  0
   -4.8013    3.6037   -0.3341 O   0  0  0  0  0  0
    4.6935    0.6692   -2.1877 O   0  0  0  0  0  0
    2.0843    0.6464   -0.9001 N   0  0  0  0  0  0
    5.4754    0.1267   -0.1108 N   0  0  0  0  0  0
   -1.6418   -0.2729   -0.4660 C   0  0  2  0  0  0
   -1.2330   -1.4695    0.4654 C   0  0  1  0  0  0
   -2.4178   -2.4318    0.6137 C   0  0  1  0  0  0
   -1.9876   -0.8865   -1.8456 C   0  0  0  0  0  0
   -0.4351    0.7169   -0.6090 C   0  0  0  0  0  0
    0.0773   -2.2198    0.0954 C   0  0  0  0  0  0
   -2.9292    0.4242    0.0647 C   0  0  0  0  0  0
   -3.5324   -1.7088    1.3936 C   0  0  0  0  0  0
   -3.1199   -1.9295   -1.7503 C   0  0  0  0  0  0
   -3.7980   -0.2765    0.9510 C   0  0  0  0  0  0
    0.8911    0.0400   -0.5936 C   0  0  0  0  0  0
    1.1593   -1.2561   -0.2862 C   0  0  0  0  0  0
   -3.3347    1.7234   -0.3658 C   0  0  0  0  0  0
    2.5684   -1.4683   -0.4197 C   0  0  0  0  0  0
   -3.8614   -4.0222   -0.6674 C   0  0  0  0  0  0
   -4.9639    0.3373    1.4461 C   0  0  0  0  0  0
    3.1179   -0.2560   -0.7682 C   0  0  0  0  0  0
   -4.5064    2.3373    0.1309 C   0  0  0  0  0  0
   -5.3134    1.6370    1.0541 C   0  0  0  0  0  0
    3.2777   -2.7830   -0.2300 C   0  0  0  0  0  0
    4.4961    0.2011   -1.0645 C   0  0  0  0  0  0
    6.8612    0.5043   -0.5249 C   0  0  0  0  0  0
    5.1660   -0.1243    1.3301 C   0  0  0  0  0  0
   -5.9712    4.2456    0.1525 C   0  0  0  0  0  0
    7.0887    2.0300   -0.5000 C   0  0  0  0  0  0
    8.0052   -0.2529    0.1722 C   0  0  0  0  0  0
    5.7081   -1.4639    1.8669 C   0  0  0  0  0  0
    5.5177    1.0611    2.2455 C   0  0  0  0  0  0
   -1.0356   -1.0348    1.4477 H   0  0  0  0  0  0
   -2.1041   -3.2898    1.2104 H   0  0  0  0  0  0
   -2.2824   -0.1027   -2.5443 H   0  0  0  0  0  0
   -1.1050   -1.3518   -2.2855 H   0  0  0  0  0  0
   -0.5043    1.3038   -1.5236 H   0  0  0  0  0  0
   -0.4515    1.4242    0.2212 H   0  0  0  0  0  0
    0.4163   -2.8312    0.9323 H   0  0  0  0  0  0
   -0.0754   -2.8948   -0.7466 H   0  0  0  0  0  0
   -4.4611   -2.2784    1.3801 H   0  0  0  0  0  0
   -3.2404   -1.6567    2.4433 H   0  0  0  0  0  0
   -4.0746   -1.4498   -1.5322 H   0  0  0  0  0  0
   -3.2426   -2.4131   -2.7201 H   0  0  0  0  0  0
   -3.9504   -4.5157   -1.6357 H   0  0  0  0  0  0
   -3.6004   -4.7839    0.0680 H   0  0  0  0  0  0
   -4.8398   -3.6152   -0.4115 H   0  0  0  0  0  0
    2.1949    1.6121   -1.1753 H   0  0  0  0  0  0
   -5.6067   -0.1970    2.1308 H   0  0  0  0  0  0
   -6.2176    2.0644    1.4597 H   0  0  0  0  0  0
    4.2599   -2.7703   -0.7022 H   0  0  0  0  0  0
    2.6996   -3.5908   -0.6788 H   0  0  0  0  0  0
    3.3966   -2.9979    0.8316 H   0  0  0  0  0  0
   -3.0407    3.2652   -1.4824 H   0  0  0  0  0  0
    6.9857    0.2017   -1.5666 H   0  0  0  0  0  0
    4.0899   -0.2071    1.4631 H   0  0  0  0  0  0
   -6.0561    5.2318   -0.3038 H   0  0  0  0  0  0
   -6.8707    3.6851   -0.1058 H   0  0  0  0  0  0
   -5.9294    4.3859    1.2335 H   0  0  0  0  0  0
    8.0396    2.2831   -0.9695 H   0  0  0  0  0  0
    6.3104    2.5635   -1.0458 H   0  0  0  0  0  0
    7.1172    2.4311    0.5111 H   0  0  0  0  0  0
    8.9544   -0.0380   -0.3194 H   0  0  0  0  0  0
    8.1264    0.0358    1.2144 H   0  0  0  0  0  0
    7.8615   -1.3320    0.1177 H   0  0  0  0  0  0
    5.1084   -1.8058    2.7109 H   0  0  0  0  0  0
    5.6846   -2.2464    1.1103 H   0  0  0  0  0  0
    6.7302   -1.3870    2.2324 H   0  0  0  0  0  0
    6.5913    1.1966    2.3618 H   0  0  0  0  0  0
    5.1094    0.9071    3.2447 H   0  0  0  0  0  0
    5.0957    1.9913    1.8640 H   0  0  0  0  0  0
   -2.8269   -2.9644   -0.7248 N   0  3  2  0  0  0
   -1.9999   -3.4330   -1.0668 H   0  0  0  0  0  0
  1 18  1  0  0  0
  1 55  1  0  0  0
  2 23  1  0  0  0
  2 29  1  0  0  0
  3 26  2  0  0  0
  4 16  1  0  0  0
  4 22  1  0  0  0
  4 49  1  0  0  0
  5 26  1  0  0  0
  5 27  1  0  0  0
  5 28  1  0  0  0
  6  7  1  0  0  0
  6  9  1  0  0  0
  6 10  1  0  0  0
  6 12  1  0  0  0
  7  8  1  0  0  0
  7 11  1  0  0  0
  7 34  1  0  0  0
  8 13  1  0  0  0
  8 35  1  0  0  0
  8 73  1  0  0  0
  9 14  1  0  0  0
  9 36  1  0  0  0
  9 37  1  0  0  0
 10 16  1  0  0  0
 10 38  1  0  0  0
 10 39  1  0  0  0
 11 17  1  0  0  0
 11 40  1  0  0  0
 11 41  1  0  0  0
 12 15  2  0  0  0
 12 18  1  0  0  0
 13 15  1  0  0  0
 13 42  1  0  0  0
 13 43  1  0  0  0
 14 44  1  0  0  0
 14 45  1  0  0  0
 14 73  1  0  0  0
 15 21  1  0  0  0
 16 17  2  0  0  0
 17 19  1  0  0  0
 18 23  2  0  0  0
 19 22  2  0  0  0
 19 25  1  0  0  0
 20 46  1  0  0  0
 20 47  1  0  0  0
 20 48  1  0  0  0
 20 73  1  0  0  0
 21 24  2  0  0  0
 21 50  1  0  0  0
 22 26  1  0  0  0
 23 24  1  0  0  0
 24 51  1  0  0  0
 25 52  1  0  0  0
 25 53  1  0  0  0
 25 54  1  0  0  0
 27 30  1  0  0  0
 27 31  1  0  0  0
 27 56  1  0  0  0
 28 32  1  0  0  0
 28 33  1  0  0  0
 28 57  1  0  0  0
 29 58  1  0  0  0
 29 59  1  0  0  0
 29 60  1  0  0  0
 30 61  1  0  0  0
 30 62  1  0  0  0
 30 63  1  0  0  0
 31 64  1  0  0  0
 31 65  1  0  0  0
 31 66  1  0  0  0
 32 67  1  0  0  0
 32 68  1  0  0  0
 32 69  1  0  0  0
 33 70  1  0  0  0
 33 71  1  0  0  0
 33 72  1  0  0  0
 73 74  1  0  0  0
M  CHG  1  73   1
M  END
> <LID>
L019468

> <PC_CID>
20779984

> <Names>


> <CAS_Numbers>
177284-71-8

$$$$
26644
                    3D
 Structure written by MMmdl.
 67 73  0  0  1  0            999 V2000
    2.6836    0.8106    1.1338 O   0  0  0  0  0  0
    1.3693    3.3988    0.7288 O   0  0  0  0  0  0
   -1.5440    3.5035   -1.6796 O   0  0  0  0  0  0
    5.3281   -0.3355    0.4412 O   0  0  0  0  0  0
   -0.3681   -0.0761   -0.5261 C   0  0  1  0  0  0
    0.6127   -0.3059    0.6376 C   0  0  1  0  0  0
    0.7844    2.2074    0.1972 C   0  0  1  0  0  0
    1.2568    1.0336    1.1196 C   0  0  2  0  0  0
   -0.8635   -1.5063   -0.9048 C   0  0  1  0  0  0
   -1.4421    0.9698   -0.1172 C   0  0  0  0  0  0
   -0.7835    2.3155    0.3396 C   0  0  2  0  0  0
    0.3496    0.6167   -1.7373 C   0  0  0  0  0  0
    1.1260    1.8765   -1.2812 C   0  0  0  0  0  0
    0.0227   -1.1541    1.8056 C   0  0  0  0  0  0
    1.7916   -1.0355    0.0884 C   0  0  0  0  0  0
    0.3094   -2.4776   -1.2848 C   0  0  0  0  0  0
   -1.3831   -1.7381    1.5740 C   0  0  0  0  0  0
    1.7132   -2.1549   -0.7512 C   0  0  0  0  0  0
   -1.5307    3.5620   -0.2661 C   0  0  0  0  0  0
    2.9281   -0.3627    0.4797 C   0  0  0  0  0  0
   -3.1165   -2.2440   -0.1371 C   0  0  0  0  0  0
   -3.8614   -3.2292    0.7482 C   0  0  0  0  0  0
    2.9515   -2.7092   -1.1395 C   0  0  0  0  0  0
   -3.0087    3.5751    0.1815 C   0  0  0  0  0  0
   -0.9155    4.9263    0.1021 C   0  0  0  0  0  0
    4.1553   -0.9341    0.0864 C   0  0  0  0  0  0
   -5.1843   -3.8028    0.2945 C   0  0  0  0  0  0
   -3.9658   -4.6892    0.3710 C   0  0  0  0  0  0
    2.6472    3.7952    0.2462 C   0  0  0  0  0  0
    4.1631   -2.1155   -0.6996 C   0  0  0  0  0  0
    0.9640    1.2702    2.1427 H   0  0  0  0  0  0
   -1.4920   -1.4168   -1.7919 H   0  0  0  0  0  0
   -2.1052    0.6341    0.6711 H   0  0  0  0  0  0
   -2.1046    1.1165   -0.9701 H   0  0  0  0  0  0
   -0.9571    2.3893    1.4146 H   0  0  0  0  0  0
   -0.3885    0.9000   -2.4890 H   0  0  0  0  0  0
    1.0315   -0.0450   -2.2696 H   0  0  0  0  0  0
    2.1947    1.6914   -1.3917 H   0  0  0  0  0  0
    0.9039    2.7163   -1.9386 H   0  0  0  0  0  0
   -0.0192   -0.5711    2.7254 H   0  0  0  0  0  0
    0.6990   -1.9760    2.0475 H   0  0  0  0  0  0
    0.4045   -2.4739   -2.3713 H   0  0  0  0  0  0
    0.0668   -3.5097   -1.0284 H   0  0  0  0  0  0
   -2.1347   -1.0275    1.9134 H   0  0  0  0  0  0
   -1.5120   -2.6001    2.2292 H   0  0  0  0  0  0
   -3.2581   -2.5537   -1.1736 H   0  0  0  0  0  0
   -3.5711   -1.2575   -0.0383 H   0  0  0  0  0  0
   -3.8104   -3.0062    1.8121 H   0  0  0  0  0  0
    2.9794   -3.5617   -1.8022 H   0  0  0  0  0  0
   -3.5426    4.4356   -0.2239 H   0  0  0  0  0  0
   -3.5531    2.6884   -0.1421 H   0  0  0  0  0  0
   -3.0884    3.6285    1.2677 H   0  0  0  0  0  0
   -1.5582    5.7510   -0.2082 H   0  0  0  0  0  0
   -0.7684    5.0173    1.1787 H   0  0  0  0  0  0
    0.0434    5.0894   -0.3891 H   0  0  0  0  0  0
   -5.5454   -3.5319   -0.6958 H   0  0  0  0  0  0
   -5.9561   -3.9443    1.0485 H   0  0  0  0  0  0
   -3.9249   -5.4197    1.1764 H   0  0  0  0  0  0
   -3.5170   -5.0063   -0.5684 H   0  0  0  0  0  0
   -2.0047    4.2606   -2.0079 H   0  0  0  0  0  0
    3.4019    3.0195    0.3636 H   0  0  0  0  0  0
    2.9831    4.6667    0.8075 H   0  0  0  0  0  0
    2.6025    4.0855   -0.8036 H   0  0  0  0  0  0
    5.1056   -2.5428   -1.0093 H   0  0  0  0  0  0
    5.1922    0.4458    0.9557 H   0  0  0  0  0  0
   -1.6637   -2.1696    0.1743 N   0  3  1  0  0  0
   -1.3536   -3.1301    0.1363 H   0  0  0  0  0  0
  1  8  1  0  0  0
  1 20  1  0  0  0
  2  7  1  0  0  0
  2 29  1  0  0  0
  3 19  1  0  0  0
  3 60  1  0  0  0
  4 26  1  0  0  0
  4 65  1  0  0  0
  5  6  1  0  0  0
  5  9  1  0  0  0
  5 10  1  0  0  0
  5 12  1  0  0  0
  6  8  1  0  0  0
  6 14  1  0  0  0
  6 15  1  0  0  0
  7  8  1  0  0  0
  7 11  1  0  0  0
  7 13  1  0  0  0
  8 31  1  0  0  0
  9 16  1  0  0  0
  9 32  1  0  0  0
  9 66  1  0  0  0
 10 11  1  0  0  0
 10 33  1  0  0  0
 10 34  1  0  0  0
 11 19  1  0  0  0
 11 35  1  0  0  0
 12 13  1  0  0  0
 12 36  1  0  0  0
 12 37  1  0  0  0
 13 38  1  0  0  0
 13 39  1  0  0  0
 14 17  1  0  0  0
 14 40  1  0  0  0
 14 41  1  0  0  0
 15 18  2  0  0  0
 15 20  1  0  0  0
 16 18  1  0  0  0
 16 42  1  0  0  0
 16 43  1  0  0  0
 17 44  1  0  0  0
 17 45  1  0  0  0
 17 66  1  0  0  0
 18 23  1  0  0  0
 19 24  1  0  0  0
 19 25  1  0  0  0
 20 26  2  0  0  0
 21 22  1  0  0  0
 21 46  1  0  0  0
 21 47  1  0  0  0
 21 66  1  0  0  0
 22 27  1  0  0  0
 22 28  1  0  0  0
 22 48  1  0  0  0
 23 30  2  0  0  0
 23 49  1  0  0  0
 24 50  1  0  0  0
 24 51  1  0  0  0
 24 52  1  0  0  0
 25 53  1  0  0  0
 25 54  1  0  0  0
 25 55  1  0  0  0
 26 30  1  0  0  0
 27 28  1  0  0  0
 27 56  1  0  0  0
 27 57  1  0  0  0
 28 58  1  0  0  0
 28 59  1  0  0  0
 29 61  1  0  0  0
 29 62  1  0  0  0
 29 63  1  0  0  0
 30 64  1  0  0  0
 66 67  1  0  0  0
M  CHG  1  66   1
M  END
> <LID>
L000734

> <PC_CID>
26644

> <Names>
Diprenorphine

> <CAS_Numbers>
14357-78-9;16808-86-9

$$$$
44215986
                    3D
 Structure written by MMmdl.
 78 81  0  0  1  0            999 V2000
    4.0299    1.7010   -2.1865 O   0  0  0  0  0  0
   -4.5246    3.5038    1.1670 O   0  0  0  0  0  0
    2.8647    0.6515   -0.5303 N   0  0  0  0  0  0
   -6.3281    2.3847    0.3396 N   0  0  0  0  0  0
   -1.6375   -3.1451   -0.2661 C   0  0  0  0  0  0
   -0.6792   -4.3109   -0.5034 C   0  0  0  0  0  0
   -2.9399   -3.6158    0.3790 C   0  0  0  0  0  0
   -0.4599   -5.1215    0.7864 C   0  0  0  0  0  0
   -2.6667   -4.4313    1.6533 C   0  0  0  0  0  0
   -1.3634   -1.8523   -0.5806 C   0  0  0  0  0  0
   -0.1176   -1.4591   -1.2619 C   0  0  0  0  0  0
   -2.3052   -0.7640   -0.2707 C   0  0  0  0  0  0
    0.8015   -0.6050   -0.6159 C   0  0  0  0  0  0
    0.1519   -1.8932   -2.5774 C   0  0  0  0  0  0
   -2.5246   -0.3639    1.0651 C   0  0  0  0  0  0
   -2.9573   -0.0732   -1.3133 C   0  0  0  0  0  0
    4.6017    2.2552    0.0845 C   0  0  1  0  0  0
    1.9847   -0.1910   -1.2625 C   0  0  0  0  0  0
   -4.0898    1.3577    0.3154 C   0  0  0  0  0  0
    5.3049    3.5209   -0.4612 C   0  0  0  0  0  0
   -3.4091    0.6921    1.3564 C   0  0  0  0  0  0
   -3.8418    0.9833   -1.0235 C   0  0  0  0  0  0
    3.8050    1.4976   -0.9931 C   0  0  0  0  0  0
    1.3380   -1.5016   -3.2250 C   0  0  0  0  0  0
    2.2564   -0.6593   -2.5705 C   0  0  0  0  0  0
    5.5629    1.2972    0.7853 C   0  0  0  0  0  0
   -5.0075    2.5015    0.6387 C   0  0  0  0  0  0
    5.9868    4.3606    0.6284 C   0  0  0  0  0  0
    6.6443    0.7160    0.0843 C   0  0  0  0  0  0
    5.3793    0.9876    2.1510 C   0  0  0  0  0  0
   -7.2486    3.5079    0.5693 C   0  0  0  0  0  0
   -6.9824    1.1519   -0.1295 C   0  0  0  0  0  0
    7.5268   -0.1640    0.7399 C   0  0  0  0  0  0
    6.2625    0.1076    2.8062 C   0  0  0  0  0  0
    7.3362   -0.4687    2.1010 C   0  0  0  0  0  0
   -7.2910    4.4511   -0.6410 C   0  0  0  0  0  0
   -7.2599    0.1807    1.0274 C   0  0  0  0  0  0
   -1.1066   -4.9519   -1.2754 H   0  0  0  0  0  0
    0.2902   -3.9851   -0.8767 H   0  0  0  0  0  0
   -3.6214   -2.7980    0.6064 H   0  0  0  0  0  0
   -3.4629   -4.2407   -0.3460 H   0  0  0  0  0  0
    0.1523   -6.0001    0.5813 H   0  0  0  0  0  0
    0.0824   -4.5207    1.5180 H   0  0  0  0  0  0
   -2.2325   -3.7918    2.4232 H   0  0  0  0  0  0
   -3.5992   -4.8267    2.0567 H   0  0  0  0  0  0
    0.5913   -0.2611    0.3868 H   0  0  0  0  0  0
   -0.5495   -2.5349   -3.0907 H   0  0  0  0  0  0
    3.8709    2.5953    0.8203 H   0  0  0  0  0  0
   -2.0121   -0.8679    1.8715 H   0  0  0  0  0  0
   -2.7789   -0.3524   -2.3417 H   0  0  0  0  0  0
    6.0471    3.2487   -1.2127 H   0  0  0  0  0  0
    4.5744    4.1488   -0.9735 H   0  0  0  0  0  0
   -3.5665    0.9868    2.3841 H   0  0  0  0  0  0
   -4.3284    1.5062   -1.8344 H   0  0  0  0  0  0
    1.5456   -1.8495   -4.2262 H   0  0  0  0  0  0
    2.7318    0.6509    0.4703 H   0  0  0  0  0  0
    3.1655   -0.3940   -3.0877 H   0  0  0  0  0  0
    6.4299    5.2606    0.2017 H   0  0  0  0  0  0
    5.2723    4.6719    1.3907 H   0  0  0  0  0  0
    6.7841    3.8047    1.1223 H   0  0  0  0  0  0
    6.7994    0.9419   -0.9607 H   0  0  0  0  0  0
    4.5610    1.4247    2.7043 H   0  0  0  0  0  0
   -8.2536    3.1374    0.7764 H   0  0  0  0  0  0
   -6.9681    4.0667    1.4638 H   0  0  0  0  0  0
   -7.9261    1.3982   -0.6183 H   0  0  0  0  0  0
   -6.4040    0.6531   -0.9042 H   0  0  0  0  0  0
    8.3504   -0.6051    0.1980 H   0  0  0  0  0  0
    6.1168   -0.1245    3.8509 H   0  0  0  0  0  0
    8.0135   -1.1431    2.6040 H   0  0  0  0  0  0
   -7.9883    5.2710   -0.4683 H   0  0  0  0  0  0
   -6.3111    4.8865   -0.8392 H   0  0  0  0  0  0
   -7.6129    3.9253   -1.5404 H   0  0  0  0  0  0
   -7.7809   -0.7072    0.6690 H   0  0  0  0  0  0
   -6.3373   -0.1499    1.5045 H   0  0  0  0  0  0
   -7.8843    0.6453    1.7910 H   0  0  0  0  0  0
   -1.7451   -5.5542    1.3763 N   0  3  0  0  0  0
   -1.5618   -6.0497    2.2373 H   0  0  0  0  0  0
   -2.1966   -6.1850    0.7293 H   0  0  0  0  0  0
  1 23  2  0  0  0
  2 27  2  0  0  0
  3 18  1  0  0  0
  3 23  1  0  0  0
  3 56  1  0  0  0
  4 27  1  0  0  0
  4 31  1  0  0  0
  4 32  1  0  0  0
  5  6  1  0  0  0
  5  7  1  0  0  0
  5 10  2  0  0  0
  6  8  1  0  0  0
  6 38  1  0  0  0
  6 39  1  0  0  0
  7  9  1  0  0  0
  7 40  1  0  0  0
  7 41  1  0  0  0
  8 42  1  0  0  0
  8 43  1  0  0  0
  8 76  1  0  0  0
  9 44  1  0  0  0
  9 45  1  0  0  0
  9 76  1  0  0  0
 10 11  1  0  0  0
 10 12  1  0  0  0
 11 13  2  0  0  0
 11 14  1  0  0  0
 12 15  2  0  0  0
 12 16  1  0  0  0
 13 18  1  0  0  0
 13 46  1  0  0  0
 14 24  2  0  0  0
 14 47  1  0  0  0
 15 21  1  0  0  0
 15 49  1  0  0  0
 16 22  2  0  0  0
 16 50  1  0  0  0
 17 20  1  0  0  0
 17 23  1  0  0  0
 17 26  1  0  0  0
 17 48  1  0  0  0
 18 25  2  0  0  0
 19 21  2  0  0  0
 19 22  1  0  0  0
 19 27  1  0  0  0
 20 28  1  0  0  0
 20 51  1  0  0  0
 20 52  1  0  0  0
 21 53  1  0  0  0
 22 54  1  0  0  0
 24 25  1  0  0  0
 24 55  1  0  0  0
 25 57  1  0  0  0
 26 29  2  0  0  0
 26 30  1  0  0  0
 28 58  1  0  0  0
 28 59  1  0  0  0
 28 60  1  0  0  0
 29 33  1  0  0  0
 29 61  1  0  0  0
 30 34  2  0  0  0
 30 62  1  0  0  0
 31 36  1  0  0  0
 31 63  1  0  0  0
 31 64  1  0  0  0
 32 37  1  0  0  0
 32 65  1  0  0  0
 32 66  1  0  0  0
 33 35  2  0  0  0
 33 67  1  0  0  0
 34 35  1  0  0  0
 34 68  1  0  0  0
 35 69  1  0  0  0
 36 70  1  0  0  0
 36 71  1  0  0  0
 36 72  1  0  0  0
 37 73  1  0  0  0
 37 74  1  0  0  0
 37 75  1  0  0  0
 76 77  1  0  0  0
 76 78  1  0  0  0
M  CHG  1  76   1
M  END
> <LID>
L022979

> <PC_CID>
44215986

> <Names>


> <CAS_Numbers>


$$$$
11327941
                    3D
 Structure written by MMmdl.
 69 72  0  0  1  0            999 V2000
    3.5150   -1.3572   -0.6940 O   0  0  0  0  0  0
   -5.4825   -0.6645    1.2856 O   0  0  0  0  0  0
   -4.5326   -2.3352    0.0622 N   0  0  0  0  0  0
    4.6009   -2.2315   -0.4041 C   0  0  0  0  0  0
    4.9220   -3.0841   -1.6308 C   0  0  0  0  0  0
    4.2609   -3.2814    0.6604 C   0  0  0  0  0  0
    5.6671   -4.3024   -1.0762 C   0  0  0  0  0  0
    5.2136   -4.4508    0.3847 C   0  0  0  0  0  0
    0.2932    3.4338    0.2359 C   0  0  0  0  0  0
    1.5434    4.3040    0.1236 C   0  0  0  0  0  0
   -0.9766    4.2453   -0.0137 C   0  0  0  0  0  0
    3.1717   -0.3780    0.2149 C   0  0  0  0  0  0
    0.3086    2.1041    0.5129 C   0  0  0  0  0  0
    1.5670    5.0726   -1.2096 C   0  0  0  0  0  0
   -0.8976    5.0047   -1.3481 C   0  0  0  0  0  0
    1.5574    1.3798    0.8057 C   0  0  0  0  0  0
    1.9948    0.3503   -0.0542 C   0  0  0  0  0  0
   -0.9274    1.3056    0.5496 C   0  0  0  0  0  0
    3.9201   -0.0589    1.3754 C   0  0  0  0  0  0
    2.3050    1.6721    1.9656 C   0  0  0  0  0  0
    3.4845    0.9586    2.2454 C   0  0  0  0  0  0
   -1.3994    0.7876    1.7736 C   0  0  0  0  0  0
   -1.6276    1.0123   -0.6404 C   0  0  0  0  0  0
   -3.2585   -0.3034    0.6200 C   0  0  0  0  0  0
   -2.5650   -0.0015    1.8109 C   0  0  0  0  0  0
   -2.7931    0.2233   -0.6048 C   0  0  0  0  0  0
   -4.5147   -1.1239    0.6781 C   0  0  0  0  0  0
   -5.7629   -3.1395    0.0305 C   0  0  0  0  0  0
   -3.3595   -2.9996   -0.5297 C   0  0  0  0  0  0
   -6.6420   -2.7679   -1.1718 C   0  0  0  0  0  0
   -2.4883   -3.6735    0.5406 C   0  0  0  0  0  0
    5.5027   -1.6793   -0.1355 H   0  0  0  0  0  0
    3.9947   -3.4122   -2.1030 H   0  0  0  0  0  0
    5.4996   -2.5418   -2.3799 H   0  0  0  0  0  0
    4.3502   -2.9053    1.6794 H   0  0  0  0  0  0
    3.2314   -3.6160    0.5244 H   0  0  0  0  0  0
    6.7433   -4.1287   -1.1105 H   0  0  0  0  0  0
    5.4625   -5.1985   -1.6630 H   0  0  0  0  0  0
    4.7237   -5.4086    0.5631 H   0  0  0  0  0  0
    6.0784   -4.3990    1.0473 H   0  0  0  0  0  0
    2.4628    3.7269    0.2081 H   0  0  0  0  0  0
    1.5448    5.0079    0.9568 H   0  0  0  0  0  0
   -1.8797    3.6381    0.0094 H   0  0  0  0  0  0
   -1.0813    4.9593    0.8042 H   0  0  0  0  0  0
    2.4161    5.7560   -1.2371 H   0  0  0  0  0  0
    1.6930    4.3765   -2.0402 H   0  0  0  0  0  0
   -0.8925    4.3007   -2.1815 H   0  0  0  0  0  0
   -1.7743    5.6406   -1.4741 H   0  0  0  0  0  0
    1.4193    0.1121   -0.9370 H   0  0  0  0  0  0
    4.8310   -0.5798    1.6252 H   0  0  0  0  0  0
    1.9752    2.4466    2.6427 H   0  0  0  0  0  0
    4.0568    1.1907    3.1315 H   0  0  0  0  0  0
   -0.8687    0.9983    2.6907 H   0  0  0  0  0  0
   -1.2723    1.3965   -1.5855 H   0  0  0  0  0  0
   -2.9193   -0.3832    2.7577 H   0  0  0  0  0  0
   -3.3260    0.0201   -1.5226 H   0  0  0  0  0  0
   -5.5194   -4.2021   -0.0123 H   0  0  0  0  0  0
   -6.3312   -3.0210    0.9547 H   0  0  0  0  0  0
   -3.6858   -3.7544   -1.2466 H   0  0  0  0  0  0
   -2.7579   -2.3130   -1.1214 H   0  0  0  0  0  0
   -7.5433   -3.3805   -1.1960 H   0  0  0  0  0  0
   -6.9530   -1.7237   -1.1282 H   0  0  0  0  0  0
   -6.1109   -2.9211   -2.1117 H   0  0  0  0  0  0
   -1.6473   -4.1937    0.0819 H   0  0  0  0  0  0
   -2.0808   -2.9464    1.2432 H   0  0  0  0  0  0
   -3.0600   -4.4063    1.1107 H   0  0  0  0  0  0
    0.3199    5.8416   -1.4104 N   0  3  0  0  0  0
    0.3579    6.3012   -2.3093 H   0  0  0  0  0  0
    0.2599    6.5459   -0.6888 H   0  0  0  0  0  0
  1  4  1  0  0  0
  1 12  1  0  0  0
  2 27  2  0  0  0
  3 27  1  0  0  0
  3 28  1  0  0  0
  3 29  1  0  0  0
  4  5  1  0  0  0
  4  6  1  0  0  0
  4 32  1  0  0  0
  5  7  1  0  0  0
  5 33  1  0  0  0
  5 34  1  0  0  0
  6  8  1  0  0  0
  6 35  1  0  0  0
  6 36  1  0  0  0
  7  8  1  0  0  0
  7 37  1  0  0  0
  7 38  1  0  0  0
  8 39  1  0  0  0
  8 40  1  0  0  0
  9 10  1  0  0  0
  9 11  1  0  0  0
  9 13  2  0  0  0
 10 14  1  0  0  0
 10 41  1  0  0  0
 10 42  1  0  0  0
 11 15  1  0  0  0
 11 43  1  0  0  0
 11 44  1  0  0  0
 12 17  1  0  0  0
 12 19  2  0  0  0
 13 16  1  0  0  0
 13 18  1  0  0  0
 14 45  1  0  0  0
 14 46  1  0  0  0
 14 67  1  0  0  0
 15 47  1  0  0  0
 15 48  1  0  0  0
 15 67  1  0  0  0
 16 17  2  0  0  0
 16 20  1  0  0  0
 17 49  1  0  0  0
 18 22  2  0  0  0
 18 23  1  0  0  0
 19 21  1  0  0  0
 19 50  1  0  0  0
 20 21  2  0  0  0
 20 51  1  0  0  0
 21 52  1  0  0  0
 22 25  1  0  0  0
 22 53  1  0  0  0
 23 26  2  0  0  0
 23 54  1  0  0  0
 24 25  2  0  0  0
 24 26  1  0  0  0
 24 27  1  0  0  0
 25 55  1  0  0  0
 26 56  1  0  0  0
 28 30  1  0  0  0
 28 57  1  0  0  0
 28 58  1  0  0  0
 29 31  1  0  0  0
 29 59  1  0  0  0
 29 60  1  0  0  0
 30 61  1  0  0  0
 30 62  1  0  0  0
 30 63  1  0  0  0
 31 64  1  0  0  0
 31 65  1  0  0  0
 31 66  1  0  0  0
 67 68  1  0  0  0
 67 69  1  0  0  0
M  CHG  1  67   1
M  END
> <LID>
L023452

> <PC_CID>
11327941

> <Names>


> <CAS_Numbers>


$$$$
9838141
                    3D
 Structure written by MMmdl.
 40 42  0  0  1  0            999 V2000
    2.2100   -0.4546    1.9044 S   0  0  0  0  0  0
   -4.0300    1.5586   -0.0269 O   0  0  0  0  0  0
    0.5728    0.1630   -1.2166 C   0  0  2  0  0  0
    1.6744   -0.9215   -0.9148 C   0  0  1  0  0  0
    1.6617   -1.5177    0.5188 C   0  0  2  0  0  0
    1.1601    1.5970   -0.9956 C   0  0  0  0  0  0
   -0.7131   -0.0479   -0.3889 C   0  0  0  0  0  0
    0.2730   -2.0839    0.8368 C   0  0  0  0  0  0
   -0.8467   -1.0955    0.5639 C   0  0  0  0  0  0
    0.1942    0.1227   -2.7269 C   0  0  0  0  0  0
    1.2776    2.1415    0.4426 C   0  0  0  0  0  0
    2.7009    2.1367    1.0323 C   0  0  0  0  0  0
    3.3591    0.7594    1.2022 C   0  0  0  0  0  0
   -1.8019    0.8406   -0.5693 C   0  0  0  0  0  0
   -2.0466   -1.2416    1.2919 C   0  0  0  0  0  0
   -2.9942    0.6912    0.1635 C   0  0  0  0  0  0
   -3.1179   -0.3536    1.0941 C   0  0  0  0  0  0
    2.6517   -0.5181   -1.1635 H   0  0  0  0  0  0
    2.3756   -2.3425    0.5444 H   0  0  0  0  0  0
    0.5092    2.3063   -1.5082 H   0  0  0  0  0  0
    2.1144    1.7036   -1.5133 H   0  0  0  0  0  0
    0.2334   -2.4098    1.8774 H   0  0  0  0  0  0
    0.0805   -2.9757    0.2398 H   0  0  0  0  0  0
   -0.3336   -0.7931   -2.9960 H   0  0  0  0  0  0
   -0.4667    0.9403   -3.0151 H   0  0  0  0  0  0
    1.0772    0.2036   -3.3626 H   0  0  0  0  0  0
    0.5719    1.6624    1.1196 H   0  0  0  0  0  0
    0.9577    3.1841    0.4248 H   0  0  0  0  0  0
    3.3519    2.7722    0.4310 H   0  0  0  0  0  0
    2.6523    2.6126    2.0125 H   0  0  0  0  0  0
    2.3374   -2.7189   -1.6600 H   0  0  0  0  0  0
    0.6975   -2.5380   -1.7132 H   0  0  0  0  0  0
    3.8172    0.4059    0.2833 H   0  0  0  0  0  0
    4.1882    0.8633    1.9026 H   0  0  0  0  0  0
   -1.7278    1.6545   -1.2746 H   0  0  0  0  0  0
   -2.1496   -2.0394    2.0129 H   0  0  0  0  0  0
   -4.0308   -0.4737    1.6590 H   0  0  0  0  0  0
   -3.8455    2.2270   -0.6686 H   0  0  0  0  0  0
    1.5840   -2.0717   -1.8432 N   0  3  0  0  0  0
    1.6497   -1.7398   -2.7948 H   0  0  0  0  0  0
  1  5  1  0  0  0
  1 13  1  0  0  0
  2 16  1  0  0  0
  2 38  1  0  0  0
  3  4  1  0  0  0
  3  6  1  0  0  0
  3  7  1  0  0  0
  3 10  1  0  0  0
  4  5  1  0  0  0
  4 18  1  0  0  0
  4 39  1  0  0  0
  5  8  1  0  0  0
  5 19  1  0  0  0
  6 11  1  0  0  0
  6 20  1  0  0  0
  6 21  1  0  0  0
  7  9  2  0  0  0
  7 14  1  0  0  0
  8  9  1  0  0  0
  8 22  1  0  0  0
  8 23  1  0  0  0
  9 15  1  0  0  0
 10 24  1  0  0  0
 10 25  1  0  0  0
 10 26  1  0  0  0
 11 12  1  0  0  0
 11 27  1  0  0  0
 11 28  1  0  0  0
 12 13  1  0  0  0
 12 29  1  0  0  0
 12 30  1  0  0  0
 13 33  1  0  0  0
 13 34  1  0  0  0
 14 16  2  0  0  0
 14 35  1  0  0  0
 15 17  2  0  0  0
 15 36  1  0  0  0
 16 17  1  0  0  0
 17 37  1  0  0  0
 31 39  1  0  0  0
 32 39  1  0  0  0
 39 40  1  0  0  0
M  CHG  1  39   1
M  END
> <LID>
L016169

> <PC_CID>
9838141

> <Names>


> <CAS_Numbers>


$$$$
4095
                    3D
 Structure written by MMmdl.
 51 52  0  0  1  0            999 V2000
    0.9085    2.1569   -1.2620 O   0  0  0  0  0  0
    0.0908    0.0398   -0.3620 C   0  0  0  0  0  0
    1.4742    0.0232    0.3828 C   0  0  0  0  0  0
    1.6949    1.0758    1.5119 C   0  0  1  0  0  0
   -0.0385   -1.1713   -1.3262 C   0  0  0  0  0  0
   -1.0162   -0.0042    0.7240 C   0  0  0  0  0  0
    0.0082    1.3141   -1.2570 C   0  0  0  0  0  0
    1.4986    0.4908    2.9289 C   0  0  0  0  0  0
   -1.2272    1.5001   -2.1525 C   0  0  0  0  0  0
   -1.3177   -1.6649   -1.6952 C   0  0  0  0  0  0
   -1.7672    1.1375    1.1116 C   0  0  0  0  0  0
    1.0984   -1.8000   -1.8982 C   0  0  0  0  0  0
   -1.2578   -1.2207    1.4106 C   0  0  0  0  0  0
    3.0896    3.0840    1.9810 C   0  0  0  0  0  0
    4.1907    0.9032    1.6942 C   0  0  0  0  0  0
   -1.4327    2.9489   -2.6196 C   0  0  0  0  0  0
   -1.4566   -2.7518   -2.5785 C   0  0  0  0  0  0
   -2.7418    1.0527    2.1244 C   0  0  0  0  0  0
    0.9606   -2.8876   -2.7822 C   0  0  0  0  0  0
   -2.2328   -1.3062    2.4222 C   0  0  0  0  0  0
   -0.3162   -3.3673   -3.1217 C   0  0  0  0  0  0
   -2.9789   -0.1692    2.7781 C   0  0  0  0  0  0
    1.6444   -0.9698    0.8018 H   0  0  0  0  0  0
    2.2689    0.1511   -0.3525 H   0  0  0  0  0  0
    0.9512    1.8627    1.3884 H   0  0  0  0  0  0
    2.1608   -0.3544    3.1176 H   0  0  0  0  0  0
    1.6816    1.2361    3.7023 H   0  0  0  0  0  0
    0.4800    0.1371    3.0763 H   0  0  0  0  0  0
   -1.1229    0.8526   -3.0232 H   0  0  0  0  0  0
   -2.1142    1.1641   -1.6166 H   0  0  0  0  0  0
   -2.2152   -1.2091   -1.3039 H   0  0  0  0  0  0
   -1.6094    2.1014    0.6523 H   0  0  0  0  0  0
    2.1007   -1.4677   -1.6835 H   0  0  0  0  0  0
   -0.6888   -2.1050    1.1632 H   0  0  0  0  0  0
    4.0262    3.5781    1.7207 H   0  0  0  0  0  0
    2.2769    3.7228    1.6337 H   0  0  0  0  0  0
    3.0354    3.0190    3.0679 H   0  0  0  0  0  0
    5.1117    1.3887    1.3701 H   0  0  0  0  0  0
    4.2635    0.7387    2.7698 H   0  0  0  0  0  0
    4.1421   -0.0681    1.2016 H   0  0  0  0  0  0
   -2.3383    3.0327   -3.2205 H   0  0  0  0  0  0
   -1.5347    3.6285   -1.7728 H   0  0  0  0  0  0
   -0.5991    3.2936   -3.2326 H   0  0  0  0  0  0
   -2.4407   -3.1113   -2.8413 H   0  0  0  0  0  0
   -3.3062    1.9304    2.4034 H   0  0  0  0  0  0
    1.8392   -3.3533   -3.2040 H   0  0  0  0  0  0
   -2.4049   -2.2449    2.9281 H   0  0  0  0  0  0
   -0.4204   -4.2008   -3.8007 H   0  0  0  0  0  0
   -3.7261   -0.2324    3.5554 H   0  0  0  0  0  0
    3.0194    1.7451    1.3510 N   0  3  0  0  0  0
    3.0936    1.9261    0.3593 H   0  0  0  0  0  0
  1  7  2  0  0  0
  2  3  1  0  0  0
  2  5  1  0  0  0
  2  6  1  0  0  0
  2  7  1  0  0  0
  3  4  1  0  0  0
  3 23  1  0  0  0
  3 24  1  0  0  0
  4  8  1  0  0  0
  4 25  1  0  0  0
  4 50  1  0  0  0
  5 10  2  0  0  0
  5 12  1  0  0  0
  6 11  2  0  0  0
  6 13  1  0  0  0
  7  9  1  0  0  0
  8 26  1  0  0  0
  8 27  1  0  0  0
  8 28  1  0  0  0
  9 16  1  0  0  0
  9 29  1  0  0  0
  9 30  1  0  0  0
 10 17  1  0  0  0
 10 31  1  0  0  0
 11 18  1  0  0  0
 11 32  1  0  0  0
 12 19  2  0  0  0
 12 33  1  0  0  0
 13 20  2  0  0  0
 13 34  1  0  0  0
 14 35  1  0  0  0
 14 36  1  0  0  0
 14 37  1  0  0  0
 14 50  1  0  0  0
 15 38  1  0  0  0
 15 39  1  0  0  0
 15 40  1  0  0  0
 15 50  1  0  0  0
 16 41  1  0  0  0
 16 42  1  0  0  0
 16 43  1  0  0  0
 17 21  2  0  0  0
 17 44  1  0  0  0
 18 22  2  0  0  0
 18 45  1  0  0  0
 19 21  1  0  0  0
 19 46  1  0  0  0
 20 22  1  0  0  0
 20 47  1  0  0  0
 21 48  1  0  0  0
 22 49  1  0  0  0
 50 51  1  0  0  0
M  CHG  1  50   1
M  END
> <LID>
L000874

> <PC_CID>
4095

> <Names>
Algolysin;Methadone

> <CAS_Numbers>
1095-90-5;125-56-4;125-58-6;297-88-1;5653-80-5;76-99-3

$$$$
14001
                    3D
 Structure written by MMmdl.
 65 69  0  0  1  0            999 V2000
    3.1536   -3.1955   -1.2731 O   0  0  0  0  0  0
    4.8500   -0.2627   -0.2050 N   0  0  0  0  0  0
    5.2569   -2.4324   -0.9280 N   0  0  0  0  0  0
   -3.7529   -3.0525   -0.2742 N   0  0  0  0  0  0
    3.5450   -0.9056   -0.4766 C   0  0  0  0  0  0
    2.7662   -0.1916   -1.6203 C   0  0  0  0  0  0
    2.6687   -1.0183    0.8055 C   0  0  0  0  0  0
    1.3163   -0.6872   -1.7883 C   0  0  0  0  0  0
    1.2227   -1.4782    0.5330 C   0  0  0  0  0  0
    3.9407   -2.3118   -0.9400 C   0  0  0  0  0  0
    5.9202   -1.2280   -0.4908 C   0  0  0  0  0  0
   -0.8717   -0.9411   -0.6847 C   0  0  0  0  0  0
    5.1231    1.0052    0.2382 C   0  0  0  0  0  0
   -1.7438   -0.3853    0.4657 C   0  0  0  0  0  0
   -3.2797   -0.5120    0.2539 C   0  0  0  0  0  0
    6.4687    1.4187    0.4333 C   0  0  0  0  0  0
    4.1091    1.9577    0.5221 C   0  0  0  0  0  0
   -3.9869   -0.0723    1.5464 C   0  0  0  0  0  0
   -3.8229    0.3255   -0.9208 C   0  0  0  0  0  0
    6.7846    2.7136    0.8874 C   0  0  0  0  0  0
    4.4217    3.2535    0.9764 C   0  0  0  0  0  0
   -3.5477   -1.9369   -0.0410 C   0  0  0  0  0  0
    5.7606    3.6349    1.1602 C   0  0  0  0  0  0
   -3.9673    1.2913    1.9254 C   0  0  0  0  0  0
   -5.0867    0.0036   -1.4715 C   0  0  0  0  0  0
   -4.6519   -0.9972    2.3890 C   0  0  0  0  0  0
   -3.1237    1.4392   -1.4507 C   0  0  0  0  0  0
   -4.6011    1.7228    3.1062 C   0  0  0  0  0  0
   -5.6261    0.7527   -2.5345 C   0  0  0  0  0  0
   -5.2858   -0.5657    3.5704 C   0  0  0  0  0  0
   -3.6626    2.1887   -2.5142 C   0  0  0  0  0  0
   -5.2624    0.7941    3.9297 C   0  0  0  0  0  0
   -4.9125    1.8447   -3.0595 C   0  0  0  0  0  0
    2.7324    0.8843   -1.4767 H   0  0  0  0  0  0
    3.2957   -0.3201   -2.5660 H   0  0  0  0  0  0
    3.1322   -1.7095    1.5116 H   0  0  0  0  0  0
    2.6188   -0.0776    1.3459 H   0  0  0  0  0  0
    0.8204   -0.0546   -2.5256 H   0  0  0  0  0  0
    1.2871   -1.7002   -2.1903 H   0  0  0  0  0  0
    0.6679   -1.4215    1.4685 H   0  0  0  0  0  0
    1.1927   -2.5247    0.2292 H   0  0  0  0  0  0
    6.5112   -1.4395    0.4016 H   0  0  0  0  0  0
    6.5791   -0.8659   -1.2814 H   0  0  0  0  0  0
   -1.2087   -0.5015   -1.6230 H   0  0  0  0  0  0
   -1.0021   -2.0185   -0.7951 H   0  0  0  0  0  0
    5.7552   -3.2696   -1.1933 H   0  0  0  0  0  0
   -1.4965   -0.9342    1.3745 H   0  0  0  0  0  0
   -1.4677    0.6474    0.6786 H   0  0  0  0  0  0
    7.2982    0.7560    0.2407 H   0  0  0  0  0  0
    3.0635    1.7351    0.4041 H   0  0  0  0  0  0
    7.8169    2.9992    1.0262 H   0  0  0  0  0  0
    3.6292    3.9572    1.1844 H   0  0  0  0  0  0
    6.0010    4.6287    1.5087 H   0  0  0  0  0  0
   -3.4630    2.0203    1.3089 H   0  0  0  0  0  0
   -5.6593   -0.8229   -1.0765 H   0  0  0  0  0  0
   -4.6895   -2.0494    2.1519 H   0  0  0  0  0  0
   -2.1687    1.7449   -1.0546 H   0  0  0  0  0  0
   -4.5793    2.7673    3.3801 H   0  0  0  0  0  0
   -6.5906    0.4909   -2.9444 H   0  0  0  0  0  0
   -5.7909   -1.2809    4.2029 H   0  0  0  0  0  0
   -3.1171    3.0328   -2.9099 H   0  0  0  0  0  0
   -5.7491    1.1235    4.8359 H   0  0  0  0  0  0
   -5.3261    2.4213   -3.8739 H   0  0  0  0  0  0
    0.5712   -0.6357   -0.5044 N   0  3  0  0  0  0
    0.6241    0.3216   -0.1867 H   0  0  0  0  0  0
  1 10  2  0  0  0
  2  5  1  0  0  0
  2 11  1  0  0  0
  2 13  1  0  0  0
  3 10  1  0  0  0
  3 11  1  0  0  0
  3 46  1  0  0  0
  4 22  3  0  0  0
  5  6  1  0  0  0
  5  7  1  0  0  0
  5 10  1  0  0  0
  6  8  1  0  0  0
  6 34  1  0  0  0
  6 35  1  0  0  0
  7  9  1  0  0  0
  7 36  1  0  0  0
  7 37  1  0  0  0
  8 38  1  0  0  0
  8 39  1  0  0  0
  8 64  1  0  0  0
  9 40  1  0  0  0
  9 41  1  0  0  0
  9 64  1  0  0  0
 11 42  1  0  0  0
 11 43  1  0  0  0
 12 14  1  0  0  0
 12 44  1  0  0  0
 12 45  1  0  0  0
 12 64  1  0  0  0
 13 16  2  0  0  0
 13 17  1  0  0  0
 14 15  1  0  0  0
 14 47  1  0  0  0
 14 48  1  0  0  0
 15 18  1  0  0  0
 15 19  1  0  0  0
 15 22  1  0  0  0
 16 20  1  0  0  0
 16 49  1  0  0  0
 17 21  2  0  0  0
 17 50  1  0  0  0
 18 24  2  0  0  0
 18 26  1  0  0  0
 19 25  2  0  0  0
 19 27  1  0  0  0
 20 23  2  0  0  0
 20 51  1  0  0  0
 21 23  1  0  0  0
 21 52  1  0  0  0
 23 53  1  0  0  0
 24 28  1  0  0  0
 24 54  1  0  0  0
 25 29  1  0  0  0
 25 55  1  0  0  0
 26 30  2  0  0  0
 26 56  1  0  0  0
 27 31  2  0  0  0
 27 57  1  0  0  0
 28 32  2  0  0  0
 28 58  1  0  0  0
 29 33  2  0  0  0
 29 59  1  0  0  0
 30 32  1  0  0  0
 30 60  1  0  0  0
 31 33  1  0  0  0
 31 61  1  0  0  0
 32 62  1  0  0  0
 33 63  1  0  0  0
 64 65  1  0  0  0
M  CHG  1  64   1
M  END
> <LID>
L022588

> <PC_CID>
14001

> <Names>


> <CAS_Numbers>


$$$$
23515283
                    3D
 Structure written by MMmdl.
 66 74  0  0  1  0            999 V2000
   -4.8444   -3.1395   -2.5469 F   0  0  0  0  0  0
   -0.2347    2.0887    1.2355 O   0  0  0  0  0  0
    1.4230   -2.1072    0.9374 O   0  0  0  0  0  0
   -0.3744    4.6155   -0.2930 O   0  0  0  0  0  0
   -5.9660    1.2614    0.6770 O   0  0  0  0  0  0
   -2.5434    0.1583    1.1161 N   0  0  0  0  0  0
    1.3103    0.3293    0.7357 C   0  0  1  0  0  0
    1.4017   -1.0405   -0.0022 C   0  0  1  0  0  0
    2.7620   -1.0305   -0.7551 C   0  0  1  0  0  0
   -0.0476    0.6751    1.4289 C   0  0  2  0  0  0
    2.4833    0.4621    1.7412 C   0  0  0  0  0  0
    1.3782    1.4357   -0.2785 C   0  0  0  0  0  0
    0.1816   -1.3470   -0.9210 C   0  0  0  0  0  0
    2.8532    0.1257   -1.7995 C   0  0  0  0  0  0
    3.8581    0.2585    1.0801 C   0  0  0  0  0  0
   -1.1983   -0.0143    0.7657 C   0  0  0  0  0  0
   -1.1071   -0.9162   -0.2885 C   0  0  0  0  0  0
    2.1534    1.4420   -1.4502 C   0  0  0  0  0  0
    5.2132   -1.2925   -0.3123 C   0  0  0  0  0  0
    0.5020    2.4224    0.1346 C   0  0  0  0  0  0
    6.1692   -1.7939    0.7542 C   0  0  0  0  0  0
   -2.4604   -1.2460   -0.5457 C   0  0  0  0  0  0
    7.6288   -2.0000    0.4180 C   0  0  0  0  0  0
    7.2237   -0.8896    1.3533 C   0  0  0  0  0  0
   -3.2907   -0.5842    0.3052 C   0  0  0  0  0  0
    2.0849    2.6200   -2.2238 C   0  0  0  0  0  0
    0.4563    3.5939   -0.6474 C   0  0  0  0  0  0
   -3.2009    0.9949    2.1086 C   0  0  0  0  0  0
    1.2580    3.6953   -1.8118 C   0  0  0  0  0  0
   -4.6881   -0.7519    0.2394 C   0  0  0  0  0  0
   -4.5988    0.4685    2.4900 C   0  0  0  0  0  0
   -2.9424   -2.1151   -1.5187 C   0  0  0  0  0  0
   -5.4496    0.0833    1.2601 C   0  0  1  0  0  0
   -5.2158   -1.6224   -0.7355 C   0  0  0  0  0  0
   -4.3404   -2.3020   -1.6101 C   0  0  0  0  0  0
    2.8663   -1.9775   -1.2871 H   0  0  0  0  0  0
   -0.0361    0.4244    2.4902 H   0  0  0  0  0  0
    2.3636   -0.2673    2.5433 H   0  0  0  0  0  0
    2.4580    1.4383    2.2276 H   0  0  0  0  0  0
    0.1504   -2.4041   -1.1883 H   0  0  0  0  0  0
    0.2810   -0.8145   -1.8661 H   0  0  0  0  0  0
    2.3897   -0.2181   -2.7245 H   0  0  0  0  0  0
    3.8857    0.3410   -2.0711 H   0  0  0  0  0  0
    4.1277    1.1249    0.4754 H   0  0  0  0  0  0
    4.6150    0.1887    1.8612 H   0  0  0  0  0  0
    5.6427   -0.4274   -0.8194 H   0  0  0  0  0  0
    5.1194   -2.0824   -1.0584 H   0  0  0  0  0  0
    5.7405   -2.5473    1.4129 H   0  0  0  0  0  0
    1.3175   -2.9249    0.4741 H   0  0  0  0  0  0
    7.9668   -1.7176   -0.5772 H   0  0  0  0  0  0
    8.1275   -2.8647    0.8513 H   0  0  0  0  0  0
    7.4493   -1.0144    2.4105 H   0  0  0  0  0  0
    7.2921    0.1305    0.9802 H   0  0  0  0  0  0
    2.6444    2.6949   -3.1447 H   0  0  0  0  0  0
   -3.2801    2.0007    1.6944 H   0  0  0  0  0  0
   -2.5656    1.0622    2.9921 H   0  0  0  0  0  0
    1.2118    4.5903   -2.4148 H   0  0  0  0  0  0
   -4.4601   -0.4265    3.0982 H   0  0  0  0  0  0
   -5.1237    1.1825    3.1258 H   0  0  0  0  0  0
   -2.2816   -2.6381   -2.1938 H   0  0  0  0  0  0
   -6.3047   -0.5035    1.5975 H   0  0  0  0  0  0
   -6.2833   -1.7660   -0.8155 H   0  0  0  0  0  0
   -0.8693    4.4232    0.4891 H   0  0  0  0  0  0
   -6.4793    1.7192    1.3250 H   0  0  0  0  0  0
    3.8747   -0.9717    0.2456 N   0  3  2  0  0  0
    3.6639   -1.7282    0.8821 H   0  0  0  0  0  0
  1 35  1  0  0  0
  2 10  1  0  0  0
  2 20  1  0  0  0
  3  8  1  0  0  0
  3 49  1  0  0  0
  4 27  1  0  0  0
  4 63  1  0  0  0
  5 33  1  0  0  0
  5 64  1  0  0  0
  6 16  1  0  0  0
  6 25  1  0  0  0
  6 28  1  0  0  0
  7  8  1  0  0  0
  7 10  1  0  0  0
  7 11  1  0  0  0
  7 12  1  0  0  0
  8  9  1  0  0  0
  8 13  1  0  0  0
  9 14  1  0  0  0
  9 36  1  0  0  0
  9 65  1  0  0  0
 10 16  1  0  0  0
 10 37  1  0  0  0
 11 15  1  0  0  0
 11 38  1  0  0  0
 11 39  1  0  0  0
 12 18  2  0  0  0
 12 20  1  0  0  0
 13 17  1  0  0  0
 13 40  1  0  0  0
 13 41  1  0  0  0
 14 18  1  0  0  0
 14 42  1  0  0  0
 14 43  1  0  0  0
 15 44  1  0  0  0
 15 45  1  0  0  0
 15 65  1  0  0  0
 16 17  2  0  0  0
 17 22  1  0  0  0
 18 26  1  0  0  0
 19 21  1  0  0  0
 19 46  1  0  0  0
 19 47  1  0  0  0
 19 65  1  0  0  0
 20 27  2  0  0  0
 21 23  1  0  0  0
 21 24  1  0  0  0
 21 48  1  0  0  0
 22 25  2  0  0  0
 22 32  1  0  0  0
 23 24  1  0  0  0
 23 50  1  0  0  0
 23 51  1  0  0  0
 24 52  1  0  0  0
 24 53  1  0  0  0
 25 30  1  0  0  0
 26 29  2  0  0  0
 26 54  1  0  0  0
 27 29  1  0  0  0
 28 31  1  0  0  0
 28 55  1  0  0  0
 28 56  1  0  0  0
 29 57  1  0  0  0
 30 33  1  0  0  0
 30 34  2  0  0  0
 31 33  1  0  0  0
 31 58  1  0  0  0
 31 59  1  0  0  0
 32 35  2  0  0  0
 32 60  1  0  0  0
 33 61  1  0  0  0
 34 35  1  0  0  0
 34 62  1  0  0  0
 65 66  1  0  0  0
M  CHG  1  65   1
M  END
> <LID>
L021493

> <PC_CID>
23515283

> <Names>


> <CAS_Numbers>
431969-58-3;431969-59-4

$$$$
9865393
                    3D
 Structure written by MMmdl.
 49 51  0  0  1  0            999 V2000
    1.4437   -2.2200   -0.6554 S   0  0  1  0  0  0
    2.7221   -2.9540   -1.0643 O   0  0  0  0  0  0
    5.0618    1.5005    0.2443 O   0  0  0  0  0  0
   -3.9941    3.4261    0.5382 O   0  0  0  0  0  0
   -0.8312   -1.0655    1.1413 C   0  0  0  0  0  0
    0.1890   -1.9404    1.8666 C   0  0  0  0  0  0
   -0.4484    0.0468    0.4651 C   0  0  0  0  0  0
    0.8821   -2.9707    0.9558 C   0  0  0  0  0  0
    0.9852    0.3879    0.3571 C   0  0  0  0  0  0
   -2.2797   -1.5419    1.2613 C   0  0  0  0  0  0
    1.9531   -0.5546   -0.0701 C   0  0  0  0  0  0
   -1.4175    0.9071   -0.2315 C   0  0  0  0  0  0
    1.4175    1.6804    0.7204 C   0  0  0  0  0  0
    3.3206   -0.2144   -0.1177 C   0  0  0  0  0  0
    3.7485    1.0823    0.2592 C   0  0  0  0  0  0
    2.7825    2.0208    0.6724 C   0  0  0  0  0  0
   -2.2612    1.7672    0.5025 C   0  0  0  0  0  0
   -1.4650    0.9029   -1.6407 C   0  0  0  0  0  0
   -3.7446   -3.4925    0.9598 C   0  0  0  0  0  0
   -2.4805   -2.6281   -0.9525 C   0  0  0  0  0  0
   -3.1719    2.6025   -0.1735 C   0  0  0  0  0  0
   -2.3760    1.7394   -2.3142 C   0  0  0  0  0  0
   -3.2309    2.5866   -1.5817 C   0  0  0  0  0  0
    6.0551    0.5716   -0.1650 C   0  0  0  0  0  0
    0.9401   -1.3110    2.3453 H   0  0  0  0  0  0
   -0.2957   -2.4562    2.6960 H   0  0  0  0  0  0
    1.7373   -3.4164    1.4643 H   0  0  0  0  0  0
    0.1966   -3.7847    0.7218 H   0  0  0  0  0  0
   -2.4883   -1.6917    2.3215 H   0  0  0  0  0  0
   -2.9994   -0.7976    0.9232 H   0  0  0  0  0  0
    0.7016    2.4181    1.0529 H   0  0  0  0  0  0
    4.0270   -0.9564   -0.4558 H   0  0  0  0  0  0
    3.0930    3.0145    0.9604 H   0  0  0  0  0  0
   -2.2127    1.7847    1.5818 H   0  0  0  0  0  0
   -0.8073    0.2589   -2.2065 H   0  0  0  0  0  0
   -3.8605   -4.4469    0.4450 H   0  0  0  0  0  0
   -3.7116   -3.6982    2.0303 H   0  0  0  0  0  0
   -4.6267   -2.8842    0.7550 H   0  0  0  0  0  0
   -3.2771   -1.9599   -1.2830 H   0  0  0  0  0  0
   -1.5302   -2.2104   -1.2830 H   0  0  0  0  0  0
   -2.6080   -3.5859   -1.4580 H   0  0  0  0  0  0
   -2.4174    1.7338   -3.3935 H   0  0  0  0  0  0
   -3.9266    3.2261   -2.1053 H   0  0  0  0  0  0
    7.0344    1.0474   -0.1160 H   0  0  0  0  0  0
    6.0797   -0.3008    0.4895 H   0  0  0  0  0  0
    5.8977    0.2472   -1.1945 H   0  0  0  0  0  0
   -4.5577    3.9535   -0.0070 H   0  0  0  0  0  0
   -2.5115   -2.8049    0.5180 N   0  3  0  0  0  0
   -1.7479   -3.4218    0.7554 H   0  0  0  0  0  0
  1  2  2  0  0  0
  1  8  1  0  0  0
  1 11  1  0  0  0
  3 15  1  0  0  0
  3 24  1  0  0  0
  4 21  1  0  0  0
  4 47  1  0  0  0
  5  6  1  0  0  0
  5  7  2  0  0  0
  5 10  1  0  0  0
  6  8  1  0  0  0
  6 25  1  0  0  0
  6 26  1  0  0  0
  7  9  1  0  0  0
  7 12  1  0  0  0
  8 27  1  0  0  0
  8 28  1  0  0  0
  9 11  2  0  0  0
  9 13  1  0  0  0
 10 29  1  0  0  0
 10 30  1  0  0  0
 10 48  1  0  0  0
 11 14  1  0  0  0
 12 17  2  0  0  0
 12 18  1  0  0  0
 13 16  2  0  0  0
 13 31  1  0  0  0
 14 15  2  0  0  0
 14 32  1  0  0  0
 15 16  1  0  0  0
 16 33  1  0  0  0
 17 21  1  0  0  0
 17 34  1  0  0  0
 18 22  2  0  0  0
 18 35  1  0  0  0
 19 36  1  0  0  0
 19 37  1  0  0  0
 19 38  1  0  0  0
 19 48  1  0  0  0
 20 39  1  0  0  0
 20 40  1  0  0  0
 20 41  1  0  0  0
 20 48  1  0  0  0
 21 23  2  0  0  0
 22 23  1  0  0  0
 22 42  1  0  0  0
 23 43  1  0  0  0
 24 44  1  0  0  0
 24 45  1  0  0  0
 24 46  1  0  0  0
 48 49  1  0  0  0
M  CHG  1  48   1
M  END
> <LID>
L018918

> <PC_CID>
9865393

> <Names>


> <CAS_Numbers>


$$$$
11178894
                    3D
 Structure written by MMmdl.
 65 69  0  0  1  0            999 V2000
    4.7375    1.3165    0.9465 S   0  0  0  0  0  0
    2.2602    0.0954   -0.3869 O   0  0  0  0  0  0
   -3.6159    3.0019    1.0746 O   0  0  0  0  0  0
   -4.9560    1.6175   -0.1408 N   0  0  0  0  0  0
    0.5184   -3.1229    0.0775 C   0  0  0  0  0  0
   -0.7029   -3.6874   -0.6442 C   0  0  0  0  0  0
    1.6886   -4.1034    0.0378 C   0  0  0  0  0  0
   -0.3466   -4.1174   -2.0768 C   0  0  0  0  0  0
    1.9958   -4.5347   -1.4072 C   0  0  0  0  0  0
    0.5660   -1.9026    0.6714 C   0  0  0  0  0  0
    1.7695   -1.4422    1.3873 C   0  0  0  0  0  0
   -0.5627   -0.9567    0.6170 C   0  0  0  0  0  0
    2.5794   -0.4130    0.8504 C   0  0  0  0  0  0
    2.0941   -2.0085    2.6393 C   0  0  0  0  0  0
   -0.9751   -0.3980   -0.6122 C   0  0  0  0  0  0
   -1.2055   -0.5517    1.8056 C   0  0  0  0  0  0
    3.7164    0.0239    1.5706 C   0  0  0  0  0  0
   -2.6949    0.9099    0.5312 C   0  0  0  0  0  0
   -2.0306    0.5322   -0.6559 C   0  0  0  0  0  0
   -2.2624    0.3779    1.7641 C   0  0  0  0  0  0
    3.2313   -1.5758    3.3450 C   0  0  0  0  0  0
    4.0441   -0.5613    2.8088 C   0  0  0  0  0  0
   -3.8007    1.9255    0.5055 C   0  0  0  0  0  0
    2.5096    1.4126   -0.6827 C   0  0  0  0  0  0
    3.6318    2.1049   -0.1736 C   0  0  0  0  0  0
   -6.0349    2.6097   -0.2564 C   0  0  0  0  0  0
   -5.2918    0.2917   -0.6859 C   0  0  0  0  0  0
    1.6340    2.0750   -1.5671 C   0  0  0  0  0  0
    3.8745    3.4406   -0.5512 C   0  0  0  0  0  0
   -5.8452    3.4989   -1.4932 C   0  0  0  0  0  0
   -5.7686   -0.6696    0.4128 C   0  0  0  0  0  0
    1.8701    3.4131   -1.9375 C   0  0  0  0  0  0
    2.9923    4.0958   -1.4314 C   0  0  0  0  0  0
   -1.0504   -4.5547   -0.0814 H   0  0  0  0  0  0
   -1.5435   -2.9965   -0.6627 H   0  0  0  0  0  0
    2.5944   -3.6939    0.4823 H   0  0  0  0  0  0
    1.4227   -4.9759    0.6359 H   0  0  0  0  0  0
   -1.2053   -4.5890   -2.5552 H   0  0  0  0  0  0
   -0.0869   -3.2444   -2.6774 H   0  0  0  0  0  0
    2.3764   -3.6860   -1.9774 H   0  0  0  0  0  0
    2.7742   -5.2981   -1.4168 H   0  0  0  0  0  0
    1.4703   -2.7843    3.0593 H   0  0  0  0  0  0
   -0.4730   -0.6767   -1.5272 H   0  0  0  0  0  0
   -0.8867   -0.9523    2.7570 H   0  0  0  0  0  0
   -2.3256    0.9574   -1.6045 H   0  0  0  0  0  0
   -2.7424    0.6792    2.6842 H   0  0  0  0  0  0
    3.4773   -2.0184    4.2991 H   0  0  0  0  0  0
    4.9135   -0.2252    3.3548 H   0  0  0  0  0  0
   -7.0034    2.1108   -0.3129 H   0  0  0  0  0  0
   -6.0930    3.2301    0.6395 H   0  0  0  0  0  0
   -6.0782    0.3895   -1.4357 H   0  0  0  0  0  0
   -4.4587   -0.1482   -1.2300 H   0  0  0  0  0  0
    0.7783    1.5531   -1.9686 H   0  0  0  0  0  0
    4.7333    3.9672   -0.1613 H   0  0  0  0  0  0
   -6.6581    4.2201   -1.5795 H   0  0  0  0  0  0
   -4.9109    4.0587   -1.4399 H   0  0  0  0  0  0
   -5.8293    2.9054   -2.4078 H   0  0  0  0  0  0
   -6.0511   -1.6325   -0.0129 H   0  0  0  0  0  0
   -4.9888   -0.8532    1.1520 H   0  0  0  0  0  0
   -6.6384   -0.2706    0.9355 H   0  0  0  0  0  0
    1.1934    3.9135   -2.6145 H   0  0  0  0  0  0
    3.1762    5.1210   -1.7174 H   0  0  0  0  0  0
    0.7893   -5.0650   -2.0791 N   0  3  0  0  0  0
    1.0208   -5.2992   -3.0342 H   0  0  0  0  0  0
    0.5024   -5.9067   -1.5999 H   0  0  0  0  0  0
  1 17  1  0  0  0
  1 25  1  0  0  0
  2 13  1  0  0  0
  2 24  1  0  0  0
  3 23  2  0  0  0
  4 23  1  0  0  0
  4 26  1  0  0  0
  4 27  1  0  0  0
  5  6  1  0  0  0
  5  7  1  0  0  0
  5 10  2  0  0  0
  6  8  1  0  0  0
  6 34  1  0  0  0
  6 35  1  0  0  0
  7  9  1  0  0  0
  7 36  1  0  0  0
  7 37  1  0  0  0
  8 38  1  0  0  0
  8 39  1  0  0  0
  8 63  1  0  0  0
  9 40  1  0  0  0
  9 41  1  0  0  0
  9 63  1  0  0  0
 10 11  1  0  0  0
 10 12  1  0  0  0
 11 13  2  0  0  0
 11 14  1  0  0  0
 12 15  2  0  0  0
 12 16  1  0  0  0
 13 17  1  0  0  0
 14 21  2  0  0  0
 14 42  1  0  0  0
 15 19  1  0  0  0
 15 43  1  0  0  0
 16 20  2  0  0  0
 16 44  1  0  0  0
 17 22  2  0  0  0
 18 19  2  0  0  0
 18 20  1  0  0  0
 18 23  1  0  0  0
 19 45  1  0  0  0
 20 46  1  0  0  0
 21 22  1  0  0  0
 21 47  1  0  0  0
 22 48  1  0  0  0
 24 25  1  0  0  0
 24 28  2  0  0  0
 25 29  2  0  0  0
 26 30  1  0  0  0
 26 49  1  0  0  0
 26 50  1  0  0  0
 27 31  1  0  0  0
 27 51  1  0  0  0
 27 52  1  0  0  0
 28 32  1  0  0  0
 28 53  1  0  0  0
 29 33  1  0  0  0
 29 54  1  0  0  0
 30 55  1  0  0  0
 30 56  1  0  0  0
 30 57  1  0  0  0
 31 58  1  0  0  0
 31 59  1  0  0  0
 31 60  1  0  0  0
 32 33  2  0  0  0
 32 61  1  0  0  0
 33 62  1  0  0  0
 63 64  1  0  0  0
 63 65  1  0  0  0
M  CHG  1  63   1
M  END
> <LID>
L023467

> <PC_CID>
11178894

> <Names>


> <CAS_Numbers>


$$$$
11408760
                    3D
 Structure written by MMmdl.
 72 75  0  0  1  0            999 V2000
   -3.1717    0.7091   -0.2853 O   0  0  0  0  0  0
    2.1777   -3.3439    1.7016 O   0  0  0  0  0  0
    4.0490   -2.3783    0.8362 N   0  0  0  0  0  0
   -0.6901    2.1918   -2.2806 C   0  0  0  0  0  0
   -1.6295    3.2486   -2.8613 C   0  0  0  0  0  0
    0.2285    1.6049   -3.3515 C   0  0  0  0  0  0
   -0.8551    4.3163   -3.6508 C   0  0  0  0  0  0
    0.9524    2.7113   -4.1386 C   0  0  0  0  0  0
   -0.6680    1.8369   -0.9693 C   0  0  0  0  0  0
    0.1894    0.7527   -0.4520 C   0  0  0  0  0  0
   -1.5744    2.4791   -0.0024 C   0  0  0  0  0  0
   -2.8125    1.8842    0.3380 C   0  0  0  0  0  0
    0.0815   -0.5615   -0.9582 C   0  0  0  0  0  0
    1.1081    1.0104    0.5880 C   0  0  0  0  0  0
   -1.1781    3.6832    0.6185 C   0  0  0  0  0  0
    1.8463   -1.3196    0.5526 C   0  0  0  0  0  0
    0.9057   -1.5898   -0.4624 C   0  0  0  0  0  0
    1.9276   -0.0181    1.0908 C   0  0  0  0  0  0
   -3.6597    2.5366    1.2663 C   0  0  0  0  0  0
   -2.0172    4.3132    1.5549 C   0  0  0  0  0  0
    2.7130   -2.4257    1.0799 C   0  0  0  0  0  0
   -3.2614    3.7417    1.8743 C   0  0  0  0  0  0
   -3.7472   -0.3218    0.5153 C   0  0  0  0  0  0
    4.9354   -3.4350    1.3464 C   0  0  0  0  0  0
    4.7174   -1.3928   -0.0305 C   0  0  0  0  0  0
   -2.7236   -1.0663    1.3589 C   0  0  0  0  0  0
    4.9164   -4.6820    0.4484 C   0  0  0  0  0  0
    5.4584   -0.3123    0.7733 C   0  0  0  0  0  0
   -2.3170   -2.3654    0.9867 C   0  0  0  0  0  0
   -2.1836   -0.4774    2.5223 C   0  0  0  0  0  0
   -1.3761   -3.0698    1.7653 C   0  0  0  0  0  0
   -1.2365   -1.1744    3.2964 C   0  0  0  0  0  0
   -0.8336   -2.4693    2.9197 C   0  0  0  0  0  0
   -0.9473   -4.4625    1.3522 C   0  0  0  0  0  0
   -2.2392    3.7362   -2.1021 H   0  0  0  0  0  0
   -2.3306    2.7417   -3.5255 H   0  0  0  0  0  0
    0.9796    0.9365   -2.9348 H   0  0  0  0  0  0
   -0.3791    1.0045   -4.0297 H   0  0  0  0  0  0
   -0.2295    4.9027   -2.9762 H   0  0  0  0  0  0
   -1.5477    5.0110   -4.1268 H   0  0  0  0  0  0
    1.5279    2.2781   -4.9571 H   0  0  0  0  0  0
    1.6621    3.2282   -3.4908 H   0  0  0  0  0  0
   -0.6370   -0.7847   -1.7333 H   0  0  0  0  0  0
    1.1895    2.0025    1.0067 H   0  0  0  0  0  0
   -0.2256    4.1294    0.3725 H   0  0  0  0  0  0
    0.8127   -2.5876   -0.8662 H   0  0  0  0  0  0
    2.6111    0.1970    1.8981 H   0  0  0  0  0  0
   -4.6279    2.1325    1.5177 H   0  0  0  0  0  0
   -1.7094    5.2367    2.0229 H   0  0  0  0  0  0
   -3.9132    4.2293    2.5843 H   0  0  0  0  0  0
   -4.5575    0.0316    1.1507 H   0  0  0  0  0  0
   -4.2159   -1.0287   -0.1698 H   0  0  0  0  0  0
    5.9590   -3.0666    1.4188 H   0  0  0  0  0  0
    4.6556   -3.7062    2.3660 H   0  0  0  0  0  0
    5.4358   -1.9142   -0.6646 H   0  0  0  0  0  0
    4.0254   -0.9235   -0.7299 H   0  0  0  0  0  0
    5.5949   -5.4438    0.8326 H   0  0  0  0  0  0
    3.9211   -5.1241    0.3973 H   0  0  0  0  0  0
    5.2293   -4.4429   -0.5683 H   0  0  0  0  0  0
    5.9468    0.3950    0.1029 H   0  0  0  0  0  0
    4.7850    0.2560    1.4119 H   0  0  0  0  0  0
    6.2309   -0.7431    1.4101 H   0  0  0  0  0  0
   -2.7254   -2.8257    0.0989 H   0  0  0  0  0  0
   -2.4895    0.5122    2.8259 H   0  0  0  0  0  0
   -0.8204   -0.7161    4.1813 H   0  0  0  0  0  0
   -0.1051   -2.9974    3.5177 H   0  0  0  0  0  0
   -0.3588   -4.4191    0.4357 H   0  0  0  0  0  0
   -0.3398   -4.9360    2.1240 H   0  0  0  0  0  0
   -1.8192   -5.0918    1.1724 H   0  0  0  0  0  0
   -0.0039    3.6957   -4.6876 N   0  3  0  0  0  0
    0.5096    4.4203   -5.1691 H   0  0  0  0  0  0
   -0.6015    3.2250   -5.3522 H   0  0  0  0  0  0
  1 12  1  0  0  0
  1 23  1  0  0  0
  2 21  2  0  0  0
  3 21  1  0  0  0
  3 24  1  0  0  0
  3 25  1  0  0  0
  4  5  1  0  0  0
  4  6  1  0  0  0
  4  9  2  0  0  0
  5  7  1  0  0  0
  5 35  1  0  0  0
  5 36  1  0  0  0
  6  8  1  0  0  0
  6 37  1  0  0  0
  6 38  1  0  0  0
  7 39  1  0  0  0
  7 40  1  0  0  0
  7 70  1  0  0  0
  8 41  1  0  0  0
  8 42  1  0  0  0
  8 70  1  0  0  0
  9 10  1  0  0  0
  9 11  1  0  0  0
 10 13  2  0  0  0
 10 14  1  0  0  0
 11 12  1  0  0  0
 11 15  2  0  0  0
 12 19  2  0  0  0
 13 17  1  0  0  0
 13 43  1  0  0  0
 14 18  2  0  0  0
 14 44  1  0  0  0
 15 20  1  0  0  0
 15 45  1  0  0  0
 16 17  2  0  0  0
 16 18  1  0  0  0
 16 21  1  0  0  0
 17 46  1  0  0  0
 18 47  1  0  0  0
 19 22  1  0  0  0
 19 48  1  0  0  0
 20 22  2  0  0  0
 20 49  1  0  0  0
 22 50  1  0  0  0
 23 26  1  0  0  0
 23 51  1  0  0  0
 23 52  1  0  0  0
 24 27  1  0  0  0
 24 53  1  0  0  0
 24 54  1  0  0  0
 25 28  1  0  0  0
 25 55  1  0  0  0
 25 56  1  0  0  0
 26 29  1  0  0  0
 26 30  2  0  0  0
 27 57  1  0  0  0
 27 58  1  0  0  0
 27 59  1  0  0  0
 28 60  1  0  0  0
 28 61  1  0  0  0
 28 62  1  0  0  0
 29 31  2  0  0  0
 29 63  1  0  0  0
 30 32  1  0  0  0
 30 64  1  0  0  0
 31 33  1  0  0  0
 31 34  1  0  0  0
 32 33  2  0  0  0
 32 65  1  0  0  0
 33 66  1  0  0  0
 34 67  1  0  0  0
 34 68  1  0  0  0
 34 69  1  0  0  0
 70 71  1  0  0  0
 70 72  1  0  0  0
M  CHG  1  70   1
M  END
> <LID>
L023473

> <PC_CID>
11408760

> <Names>


> <CAS_Numbers>


$$$$
