4428
                    3D
 Structure written by MMmdl.
 49 54  0  0  1  0            999 V2000
    2.6284   -0.0634   -1.4411 O   0  0  0  0  0  0
   -0.7352    2.6937   -0.1378 O   0  0  0  0  0  0
    3.9593    2.0431   -0.3069 O   0  0  0  0  0  0
    3.9296   -2.6344   -0.7267 O   0  0  0  0  0  0
    0.5502    0.6392   -0.5345 C   0  0  2  0  0  0
   -0.1426    1.5653    0.4929 C   0  0  2  0  0  0
   -1.2804    0.7253    1.1366 C   0  0  2  0  0  0
    1.8841    1.1436   -1.1709 C   0  0  1  0  0  0
   -0.4761    0.2623   -1.6357 C   0  0  0  0  0  0
    1.0312   -0.6219    0.1212 C   0  0  0  0  0  0
    0.8720    2.1496    1.5003 C   0  0  0  0  0  0
   -1.7453   -0.3926   -1.0550 C   0  0  0  0  0  0
   -0.7397   -0.5461    1.8617 C   0  0  0  0  0  0
    0.4208   -1.2879    1.1947 C   0  0  0  0  0  0
   -3.5707   -0.1453    0.6155 C   0  0  0  0  0  0
    2.0086    2.9080    0.7899 C   0  0  0  0  0  0
   -4.7282    0.0850   -0.3384 C   0  0  0  0  0  0
    2.7322    2.0250   -0.2282 C   0  0  0  0  0  0
    2.1958   -0.9862   -0.5273 C   0  0  0  0  0  0
   -6.0702   -0.5532   -0.0596 C   0  0  0  0  0  0
   -5.2446   -1.0227   -1.2300 C   0  0  0  0  0  0
    1.0319   -2.4972    1.5890 C   0  0  0  0  0  0
    2.7841   -2.2024   -0.1262 C   0  0  0  0  0  0
    2.1931   -2.9591    0.9176 C   0  0  0  0  0  0
   -1.7886    1.3447    1.8774 H   0  0  0  0  0  0
    1.6998    1.7021   -2.0889 H   0  0  0  0  0  0
   -0.7566    1.1503   -2.2033 H   0  0  0  0  0  0
   -0.0254   -0.4142   -2.3633 H   0  0  0  0  0  0
    0.3680    2.8195    2.1980 H   0  0  0  0  0  0
    1.3080    1.3603    2.1135 H   0  0  0  0  0  0
   -2.4919   -0.4707   -1.8453 H   0  0  0  0  0  0
   -1.5392   -1.4143   -0.7344 H   0  0  0  0  0  0
   -1.5376   -1.2578    2.0697 H   0  0  0  0  0  0
   -0.3720   -0.2436    2.8426 H   0  0  0  0  0  0
   -3.8181    0.3574    1.5512 H   0  0  0  0  0  0
   -3.4808   -1.2087    0.8412 H   0  0  0  0  0  0
    2.7294    3.2686    1.5242 H   0  0  0  0  0  0
    1.6206    3.7860    0.2734 H   0  0  0  0  0  0
   -4.7766    1.0964   -0.7385 H   0  0  0  0  0  0
   -6.9608    0.0333   -0.2763 H   0  0  0  0  0  0
   -6.1487   -1.2201    0.7969 H   0  0  0  0  0  0
   -4.7742   -2.0010   -1.1519 H   0  0  0  0  0  0
   -5.5825   -0.7473   -2.2271 H   0  0  0  0  0  0
   -1.0218    3.3013    0.5281 H   0  0  0  0  0  0
    0.6278   -3.0628    2.4157 H   0  0  0  0  0  0
    2.6529   -3.8852    1.2302 H   0  0  0  0  0  0
    4.2393   -2.0332   -1.3874 H   0  0  0  0  0  0
   -2.2937    0.3939    0.0830 N   0  3  1  0  0  0
   -2.5294    1.2949   -0.3100 H   0  0  0  0  0  0
  1  8  1  0  0  0
  1 19  1  0  0  0
  2  6  1  0  0  0
  2 44  1  0  0  0
  3 18  2  0  0  0
  4 23  1  0  0  0
  4 47  1  0  0  0
  5  6  1  0  0  0
  5  8  1  0  0  0
  5  9  1  0  0  0
  5 10  1  0  0  0
  6  7  1  0  0  0
  6 11  1  0  0  0
  7 13  1  0  0  0
  7 25  1  0  0  0
  7 48  1  0  0  0
  8 18  1  0  0  0
  8 26  1  0  0  0
  9 12  1  0  0  0
  9 27  1  0  0  0
  9 28  1  0  0  0
 10 14  2  0  0  0
 10 19  1  0  0  0
 11 16  1  0  0  0
 11 29  1  0  0  0
 11 30  1  0  0  0
 12 31  1  0  0  0
 12 32  1  0  0  0
 12 48  1  0  0  0
 13 14  1  0  0  0
 13 33  1  0  0  0
 13 34  1  0  0  0
 14 22  1  0  0  0
 15 17  1  0  0  0
 15 35  1  0  0  0
 15 36  1  0  0  0
 15 48  1  0  0  0
 16 18  1  0  0  0
 16 37  1  0  0  0
 16 38  1  0  0  0
 17 20  1  0  0  0
 17 21  1  0  0  0
 17 39  1  0  0  0
 19 23  2  0  0  0
 20 21  1  0  0  0
 20 40  1  0  0  0
 20 41  1  0  0  0
 21 42  1  0  0  0
 21 43  1  0  0  0
 22 24  2  0  0  0
 22 45  1  0  0  0
 23 24  1  0  0  0
 24 46  1  0  0  0
 48 49  1  0  0  0
M  CHG  1  48   1
M  END
> <LID>
L024023

> <PC_CID>
4428

> <Names>
Naltrexone

> <CAS_Numbers>


$$$$
1223
                    3D
 Structure written by MMmdl.
 53 56  0  0  1  0            999 V2000
   -4.5601    0.5127   -0.0672 O   0  0  0  0  0  0
    4.9311   -1.6221   -1.0886 O   0  0  0  0  0  0
    0.0826    1.6811    0.9883 C   0  0  0  0  0  0
    0.9426    1.2640   -0.2739 C   0  0  2  0  0  0
   -0.7550    0.4407    1.4094 C   0  0  2  0  0  0
   -0.0465    0.8397   -1.3982 C   0  0  0  0  0  0
   -1.0201   -0.2740   -0.9698 C   0  0  0  0  0  0
   -3.9952   -0.7818   -0.1118 C   0  0  0  0  0  0
    0.1417   -0.7298    1.8675 C   0  0  0  0  0  0
    1.8090    0.0165    0.0538 C   0  0  0  0  0  0
   -2.7296   -0.9321    0.7115 C   0  0  0  0  0  0
    1.8414    2.4700   -0.7358 C   0  0  0  0  0  0
   -0.9114    2.8583    0.7474 C   0  0  0  0  0  0
    0.9863    2.1396    2.1661 C   0  0  0  0  0  0
   -5.0717   -1.8417   -0.1237 C   0  0  0  0  0  0
   -4.2938   -1.5380   -1.3848 C   0  0  0  0  0  0
    1.4011   -0.9257    1.0403 C   0  0  0  0  0  0
    3.0082   -0.2476   -0.6559 C   0  0  0  0  0  0
    2.0692    2.6652   -2.2498 C   0  0  0  0  0  0
    2.1779   -2.0740    1.2998 C   0  0  0  0  0  0
    3.7796   -1.3954   -0.3926 C   0  0  0  0  0  0
    3.3640   -2.3115    0.5866 C   0  0  0  0  0  0
   -1.3785    0.7199    2.2605 H   0  0  0  0  0  0
    0.5024    0.4811   -2.2695 H   0  0  0  0  0  0
   -0.6175    1.6970   -1.7528 H   0  0  0  0  0  0
   -1.7643   -0.4043   -1.7550 H   0  0  0  0  0  0
   -0.5037   -1.2305   -0.8853 H   0  0  0  0  0  0
   -0.4141   -1.6661    1.9105 H   0  0  0  0  0  0
    0.4660   -0.5439    2.8920 H   0  0  0  0  0  0
   -3.0006   -0.7884    1.7583 H   0  0  0  0  0  0
   -2.3478   -1.9499    0.6201 H   0  0  0  0  0  0
    1.4142    3.4143   -0.4128 H   0  0  0  0  0  0
    2.8005    2.4367   -0.2175 H   0  0  0  0  0  0
   -0.4158    3.8082    0.5559 H   0  0  0  0  0  0
   -1.6041    2.6894   -0.0751 H   0  0  0  0  0  0
   -1.5277    3.0237    1.6320 H   0  0  0  0  0  0
    1.4798    3.0874    1.9511 H   0  0  0  0  0  0
    0.4022    2.2891    3.0747 H   0  0  0  0  0  0
    1.7751    1.4280    2.4067 H   0  0  0  0  0  0
   -6.1126   -1.5243   -0.0901 H   0  0  0  0  0  0
   -4.8595   -2.7853    0.3753 H   0  0  0  0  0  0
   -3.5697   -2.2805   -1.7145 H   0  0  0  0  0  0
   -4.8116   -1.0084   -2.1825 H   0  0  0  0  0  0
    3.3654    0.4246   -1.4160 H   0  0  0  0  0  0
    2.7901    3.4644   -2.4229 H   0  0  0  0  0  0
    2.4466    1.7763   -2.7510 H   0  0  0  0  0  0
    1.1480    2.9578   -2.7538 H   0  0  0  0  0  0
    1.8647   -2.7799    2.0552 H   0  0  0  0  0  0
   -5.1326    0.5691    0.6835 H   0  0  0  0  0  0
    3.9526   -3.1935    0.7928 H   0  0  0  0  0  0
    5.1260   -0.9464   -1.7196 H   0  0  0  0  0  0
   -1.6950    0.0553    0.3111 N   0  3  1  0  0  0
   -2.2216    0.8981    0.1258 H   0  0  0  0  0  0
  1  8  1  0  0  0
  1 49  1  0  0  0
  2 21  1  0  0  0
  2 51  1  0  0  0
  3  4  1  0  0  0
  3  5  1  0  0  0
  3 13  1  0  0  0
  3 14  1  0  0  0
  4  6  1  0  0  0
  4 10  1  0  0  0
  4 12  1  0  0  0
  5  9  1  0  0  0
  5 23  1  0  0  0
  5 52  1  0  0  0
  6  7  1  0  0  0
  6 24  1  0  0  0
  6 25  1  0  0  0
  7 26  1  0  0  0
  7 27  1  0  0  0
  7 52  1  0  0  0
  8 11  1  0  0  0
  8 15  1  0  0  0
  8 16  1  0  0  0
  9 17  1  0  0  0
  9 28  1  0  0  0
  9 29  1  0  0  0
 10 17  2  0  0  0
 10 18  1  0  0  0
 11 30  1  0  0  0
 11 31  1  0  0  0
 11 52  1  0  0  0
 12 19  1  0  0  0
 12 32  1  0  0  0
 12 33  1  0  0  0
 13 34  1  0  0  0
 13 35  1  0  0  0
 13 36  1  0  0  0
 14 37  1  0  0  0
 14 38  1  0  0  0
 14 39  1  0  0  0
 15 16  1  0  0  0
 15 40  1  0  0  0
 15 41  1  0  0  0
 16 42  1  0  0  0
 16 43  1  0  0  0
 17 20  1  0  0  0
 18 21  2  0  0  0
 18 44  1  0  0  0
 19 45  1  0  0  0
 19 46  1  0  0  0
 19 47  1  0  0  0
 20 22  2  0  0  0
 20 48  1  0  0  0
 21 22  1  0  0  0
 22 50  1  0  0  0
 52 53  1  0  0  0
M  CHG  1  52   1
M  END
> <LID>
L000925

> <PC_CID>
1223

> <Names>
bremazocine

> <CAS_Numbers>
71990-00-6

$$$$
5497186
                    3D
 Structure written by MMmdl.
 58 65  0  0  1  0            999 V2000
   -0.8874   -1.9033   -1.5510 O   0  0  0  0  0  0
    0.6898    2.2547   -0.7281 O   0  0  0  0  0  0
   -1.1010   -4.5689   -0.2880 O   0  0  0  0  0  0
   -3.1917    0.0072   -1.4413 N   0  0  0  0  0  0
    0.5993   -0.1931   -0.7750 C   0  0  1  0  0  0
    0.6099    1.0982    0.0939 C   0  0  1  0  0  0
    1.9055    1.0296    0.9493 C   0  0  1  0  0  0
   -0.6976   -0.4778   -1.5978 C   0  0  2  0  0  0
    1.8487   -0.2161   -1.6933 C   0  0  0  0  0  0
    0.6059   -1.3915    0.1310 C   0  0  0  0  0  0
   -0.6857    1.3012    0.9319 C   0  0  0  0  0  0
    1.9388   -0.2224    1.8801 C   0  0  0  0  0  0
    3.1648   -0.0584   -0.9101 C   0  0  0  0  0  0
    1.2913   -1.5053    1.3521 C   0  0  0  0  0  0
   -1.9006    0.1482   -0.9652 C   0  0  0  0  0  0
   -1.9154    0.9375    0.1525 C   0  0  0  0  0  0
    4.3769    1.3672    0.7280 C   0  0  0  0  0  0
   -0.2259   -2.3386   -0.4377 C   0  0  0  0  0  0
    5.4012    1.9829   -0.2071 C   0  0  0  0  0  0
    6.8262    2.1745    0.2604 C   0  0  0  0  0  0
    6.5170    1.1555   -0.8062 C   0  0  0  0  0  0
   -3.2866    1.3014    0.3845 C   0  0  0  0  0  0
    1.1822   -2.7528    2.0022 C   0  0  0  0  0  0
   -0.3125   -3.5806    0.2229 C   0  0  0  0  0  0
   -4.0789    0.6998   -0.6395 C   0  0  0  0  0  0
    0.4034   -3.7890    1.4282 C   0  0  0  0  0  0
   -3.9622    2.0801    1.3537 C   0  0  0  0  0  0
   -5.4746    0.8656   -0.6954 C   0  0  0  0  0  0
   -5.3608    2.2517    1.3052 C   0  0  0  0  0  0
   -6.1172    1.6461    0.2831 C   0  0  0  0  0  0
    1.9483    1.9214    1.5767 H   0  0  0  0  0  0
   -0.6071   -0.1317   -2.6280 H   0  0  0  0  0  0
    1.7774    0.5845   -2.4305 H   0  0  0  0  0  0
    1.8800   -1.1421   -2.2692 H   0  0  0  0  0  0
   -0.7499    2.3246    1.3047 H   0  0  0  0  0  0
   -0.6578    0.6729    1.8214 H   0  0  0  0  0  0
    1.3995    0.0244    2.7949 H   0  0  0  0  0  0
    2.9515   -0.4519    2.2089 H   0  0  0  0  0  0
    3.4056   -0.9759   -0.3724 H   0  0  0  0  0  0
    3.9777    0.0976   -1.6193 H   0  0  0  0  0  0
    4.7841    0.4629    1.1819 H   0  0  0  0  0  0
    4.2092    2.0796    1.5366 H   0  0  0  0  0  0
    5.0086    2.7913   -0.8217 H   0  0  0  0  0  0
   -0.1255    2.3437   -1.2000 H   0  0  0  0  0  0
    7.0927    1.8009    1.2473 H   0  0  0  0  0  0
    7.3385    3.0840   -0.0471 H   0  0  0  0  0  0
    6.8203    1.3859   -1.8256 H   0  0  0  0  0  0
    6.5778    0.1048   -0.5290 H   0  0  0  0  0  0
   -3.4248   -0.5401   -2.2574 H   0  0  0  0  0  0
    1.6721   -2.9119    2.9517 H   0  0  0  0  0  0
    0.3253   -4.7383    1.9377 H   0  0  0  0  0  0
   -3.3964    2.5506    2.1441 H   0  0  0  0  0  0
   -6.0488    0.3983   -1.4816 H   0  0  0  0  0  0
   -1.5380   -4.3067   -1.0841 H   0  0  0  0  0  0
   -5.8553    2.8505    2.0561 H   0  0  0  0  0  0
   -7.1885    1.7806    0.2508 H   0  0  0  0  0  0
    3.0924    1.0843    0.0386 N   0  3  2  0  0  0
    2.9118    1.8987   -0.5329 H   0  0  0  0  0  0
  1  8  1  0  0  0
  1 18  1  0  0  0
  2  6  1  0  0  0
  2 44  1  0  0  0
  3 24  1  0  0  0
  3 54  1  0  0  0
  4 15  1  0  0  0
  4 25  1  0  0  0
  4 49  1  0  0  0
  5  6  1  0  0  0
  5  8  1  0  0  0
  5  9  1  0  0  0
  5 10  1  0  0  0
  6  7  1  0  0  0
  6 11  1  0  0  0
  7 12  1  0  0  0
  7 31  1  0  0  0
  7 57  1  0  0  0
  8 15  1  0  0  0
  8 32  1  0  0  0
  9 13  1  0  0  0
  9 33  1  0  0  0
  9 34  1  0  0  0
 10 14  2  0  0  0
 10 18  1  0  0  0
 11 16  1  0  0  0
 11 35  1  0  0  0
 11 36  1  0  0  0
 12 14  1  0  0  0
 12 37  1  0  0  0
 12 38  1  0  0  0
 13 39  1  0  0  0
 13 40  1  0  0  0
 13 57  1  0  0  0
 14 23  1  0  0  0
 15 16  2  0  0  0
 16 22  1  0  0  0
 17 19  1  0  0  0
 17 41  1  0  0  0
 17 42  1  0  0  0
 17 57  1  0  0  0
 18 24  2  0  0  0
 19 20  1  0  0  0
 19 21  1  0  0  0
 19 43  1  0  0  0
 20 21  1  0  0  0
 20 45  1  0  0  0
 20 46  1  0  0  0
 21 47  1  0  0  0
 21 48  1  0  0  0
 22 25  1  0  0  0
 22 27  2  0  0  0
 23 26  2  0  0  0
 23 50  1  0  0  0
 24 26  1  0  0  0
 25 28  2  0  0  0
 26 51  1  0  0  0
 27 29  1  0  0  0
 27 52  1  0  0  0
 28 30  1  0  0  0
 28 53  1  0  0  0
 29 30  2  0  0  0
 29 55  1  0  0  0
 30 56  1  0  0  0
 57 58  1  0  0  0
M  CHG  1  57   1
M  END
> <LID>
L024025

> <PC_CID>
5497186

> <Names>
naltrindole

> <CAS_Numbers>
111555-53-4

$$$$
5284596
                    3D
 Structure written by MMmdl.
 46 50  0  0  1  0            999 V2000
   -2.2968   -0.0149   -1.4525 O   0  0  0  0  0  0
    1.1911    2.6040   -0.1555 O   0  0  0  0  0  0
   -3.5401    2.1183   -0.2697 O   0  0  0  0  0  0
   -3.6752   -2.5498   -0.7551 O   0  0  0  0  0  0
   -0.1839    0.6050   -0.5652 C   0  0  1  0  0  0
    0.5546    1.4932    0.4640 C   0  0  1  0  0  0
    1.6687    0.6059    1.0842 C   0  0  1  0  0  0
   -1.5088    1.1622   -1.1760 C   0  0  2  0  0  0
    0.8156    0.2078   -1.6842 C   0  0  0  0  0  0
   -0.6992   -0.6479    0.0806 C   0  0  0  0  0  0
   -0.4228    2.1028    1.4922 C   0  0  0  0  0  0
    1.0947   -0.6564    1.7988 C   0  0  0  0  0  0
    2.0708   -0.4954   -1.1281 C   0  0  0  0  0  0
   -0.0985   -1.3489    1.1372 C   0  0  0  0  0  0
   -1.5459    2.9047    0.8084 C   0  0  0  0  0  0
   -2.3135    2.0581   -0.2090 C   0  0  0  0  0  0
   -1.8838   -0.9641   -0.5570 C   0  0  0  0  0  0
    3.9248   -0.3258    0.5248 C   0  0  0  0  0  0
   -0.7453   -2.5421    1.5236 C   0  0  0  0  0  0
   -2.5080   -2.1651   -0.1642 C   0  0  0  0  0  0
   -1.9300   -2.9553    0.8617 C   0  0  0  0  0  0
    5.0580   -0.1067   -0.4579 C   0  0  0  0  0  0
    5.7448   -1.0914   -1.0566 C   0  0  0  0  0  0
    2.2062    1.1983    1.8266 H   0  0  0  0  0  0
   -1.3187    1.7268   -2.0890 H   0  0  0  0  0  0
    1.1181    1.0925   -2.2455 H   0  0  0  0  0  0
    0.3337   -0.4450   -2.4135 H   0  0  0  0  0  0
    0.1164    2.7494    2.1859 H   0  0  0  0  0  0
   -0.8741    1.3232    2.1066 H   0  0  0  0  0  0
    0.7503   -0.3556    2.7887 H   0  0  0  0  0  0
    1.8710   -1.3973    1.9860 H   0  0  0  0  0  0
    1.8344   -1.5137   -0.8177 H   0  0  0  0  0  0
    2.8048   -0.5894   -1.9286 H   0  0  0  0  0  0
   -1.1409    3.7792    0.2994 H   0  0  0  0  0  0
   -2.2439    3.2760    1.5592 H   0  0  0  0  0  0
    0.5289    3.1789   -0.5091 H   0  0  0  0  0  0
    4.2114    0.1524    1.4621 H   0  0  0  0  0  0
    3.8025   -1.3900    0.7311 H   0  0  0  0  0  0
   -0.3502   -3.1321    2.3375 H   0  0  0  0  0  0
   -2.4170   -3.8696    1.1682 H   0  0  0  0  0  0
    5.3130    0.9204   -0.6765 H   0  0  0  0  0  0
   -3.9728   -1.9299   -1.4039 H   0  0  0  0  0  0
    6.5436   -0.8689   -1.7489 H   0  0  0  0  0  0
    5.5211   -2.1309   -0.8654 H   0  0  0  0  0  0
    2.6578    0.2568    0.0148 N   0  3  2  0  0  0
    2.9141    1.1581   -0.3650 H   0  0  0  0  0  0
  1  8  1  0  0  0
  1 17  1  0  0  0
  2  6  1  0  0  0
  2 36  1  0  0  0
  3 16  2  0  0  0
  4 20  1  0  0  0
  4 42  1  0  0  0
  5  6  1  0  0  0
  5  8  1  0  0  0
  5  9  1  0  0  0
  5 10  1  0  0  0
  6  7  1  0  0  0
  6 11  1  0  0  0
  7 12  1  0  0  0
  7 24  1  0  0  0
  7 45  1  0  0  0
  8 16  1  0  0  0
  8 25  1  0  0  0
  9 13  1  0  0  0
  9 26  1  0  0  0
  9 27  1  0  0  0
 10 14  2  0  0  0
 10 17  1  0  0  0
 11 15  1  0  0  0
 11 28  1  0  0  0
 11 29  1  0  0  0
 12 14  1  0  0  0
 12 30  1  0  0  0
 12 31  1  0  0  0
 13 32  1  0  0  0
 13 33  1  0  0  0
 13 45  1  0  0  0
 14 19  1  0  0  0
 15 16  1  0  0  0
 15 34  1  0  0  0
 15 35  1  0  0  0
 17 20  2  0  0  0
 18 22  1  0  0  0
 18 37  1  0  0  0
 18 38  1  0  0  0
 18 45  1  0  0  0
 19 21  2  0  0  0
 19 39  1  0  0  0
 20 21  1  0  0  0
 21 40  1  0  0  0
 22 23  2  0  0  0
 22 41  1  0  0  0
 23 43  1  0  0  0
 23 44  1  0  0  0
 45 46  1  0  0  0
M  CHG  1  45   1
M  END
> <LID>
L000674

> <PC_CID>
5284596

> <Names>
Naloxone

> <CAS_Numbers>
357-08-4;465-65-6

$$$$
408117
                    3D
 Structure written by MMmdl.
 59 61  0  0  1  0            999 V2000
   -0.2809    4.3293   -0.7354 O   0  0  0  0  0  0
   -0.8463    0.0190    1.8142 N   0  0  0  0  0  0
   -3.5466   -0.1472   -1.3536 N   0  0  0  0  0  0
    0.3235   -0.8468    1.8935 C   0  0  1  0  0  0
    1.4550   -0.3022    0.9966 C   0  0  0  0  0  0
    2.6567   -1.2512    0.8563 C   0  0  0  0  0  0
    3.7068   -0.7203   -0.1367 C   0  0  0  0  0  0
   -1.7456   -0.0383    0.8054 C   0  0  0  0  0  0
    0.7486   -1.0009    3.3620 C   0  0  0  0  0  0
    5.6043   -1.3862   -1.5694 C   0  0  0  0  0  0
    5.7053   -1.7923    0.8784 C   0  0  0  0  0  0
   -1.8348    1.0364   -0.1193 C   0  0  0  0  0  0
   -2.6056   -1.1585    0.6357 C   0  0  0  0  0  0
   -2.7578    0.9337   -1.1934 C   0  0  0  0  0  0
   -3.4930   -1.1689   -0.4758 C   0  0  0  0  0  0
    6.4642   -2.5811   -2.0087 C   0  0  0  0  0  0
    5.6325   -3.2078    1.4630 C   0  0  0  0  0  0
   -1.0238    2.1937   -0.0054 C   0  0  0  0  0  0
   -2.6224   -2.2439    1.5480 C   0  0  0  0  0  0
   -2.8435    1.9938   -2.1186 C   0  0  0  0  0  0
   -4.3467   -2.2777   -0.6596 C   0  0  0  0  0  0
   -1.1134    3.2488   -0.9329 C   0  0  0  0  0  0
   -2.0370    3.1394   -1.9975 C   0  0  0  0  0  0
   -3.4828   -3.3383    1.3495 C   0  0  0  0  0  0
   -4.3435   -3.3581    0.2404 C   0  0  0  0  0  0
   -0.3589    5.4099   -1.6538 C   0  0  0  0  0  0
    0.0474   -1.8311    1.5152 H   0  0  0  0  0  0
    1.0545   -0.1142   -0.0007 H   0  0  0  0  0  0
    1.7924    0.6647    1.3729 H   0  0  0  0  0  0
    3.1138   -1.4020    1.8332 H   0  0  0  0  0  0
    2.3060   -2.2289    0.5233 H   0  0  0  0  0  0
    3.2084   -0.5585   -1.0935 H   0  0  0  0  0  0
    4.0852    0.2527    0.1808 H   0  0  0  0  0  0
   -0.6251    0.9675    2.0796 H   0  0  0  0  0  0
    1.5561   -1.7235    3.4750 H   0  0  0  0  0  0
    1.0864   -0.0523    3.7808 H   0  0  0  0  0  0
   -0.0823   -1.3553    3.9730 H   0  0  0  0  0  0
    4.9123   -1.1645   -2.3829 H   0  0  0  0  0  0
    6.2199   -0.4950   -1.4376 H   0  0  0  0  0  0
    6.7430   -1.5546    0.6406 H   0  0  0  0  0  0
    5.4196   -1.0696    1.6439 H   0  0  0  0  0  0
    6.9642   -2.3667   -2.9535 H   0  0  0  0  0  0
    7.2386   -2.8200   -1.2799 H   0  0  0  0  0  0
    5.8543   -3.4732   -2.1546 H   0  0  0  0  0  0
    6.2683   -3.2952    2.3443 H   0  0  0  0  0  0
    4.6157   -3.4627    1.7628 H   0  0  0  0  0  0
    5.9656   -3.9530    0.7402 H   0  0  0  0  0  0
   -0.3108    2.2948    0.7991 H   0  0  0  0  0  0
   -1.9849   -2.2520    2.4189 H   0  0  0  0  0  0
   -3.5419    1.9278   -2.9402 H   0  0  0  0  0  0
   -5.0211   -2.2978   -1.5034 H   0  0  0  0  0  0
   -2.1461    3.9188   -2.7361 H   0  0  0  0  0  0
   -3.4841   -4.1600    2.0506 H   0  0  0  0  0  0
   -5.0069   -4.1959    0.0836 H   0  0  0  0  0  0
    0.3528    6.1820   -1.3619 H   0  0  0  0  0  0
   -0.1040    5.0925   -2.6658 H   0  0  0  0  0  0
   -1.3521    5.8611   -1.6554 H   0  0  0  0  0  0
    4.8389   -1.6656   -0.3260 N   0  3  0  0  0  0
    4.4137   -2.5705   -0.4701 H   0  0  0  0  0  0
  1 22  1  0  0  0
  1 26  1  0  0  0
  2  4  1  0  0  0
  2  8  1  0  0  0
  2 34  1  0  0  0
  3 14  2  0  0  0
  3 15  1  0  0  0
  4  5  1  0  0  0
  4  9  1  0  0  0
  4 27  1  0  0  0
  5  6  1  0  0  0
  5 28  1  0  0  0
  5 29  1  0  0  0
  6  7  1  0  0  0
  6 30  1  0  0  0
  6 31  1  0  0  0
  7 32  1  0  0  0
  7 33  1  0  0  0
  7 58  1  0  0  0
  8 12  2  0  0  0
  8 13  1  0  0  0
  9 35  1  0  0  0
  9 36  1  0  0  0
  9 37  1  0  0  0
 10 16  1  0  0  0
 10 38  1  0  0  0
 10 39  1  0  0  0
 10 58  1  0  0  0
 11 17  1  0  0  0
 11 40  1  0  0  0
 11 41  1  0  0  0
 11 58  1  0  0  0
 12 14  1  0  0  0
 12 18  1  0  0  0
 13 15  1  0  0  0
 13 19  2  0  0  0
 14 20  1  0  0  0
 15 21  2  0  0  0
 16 42  1  0  0  0
 16 43  1  0  0  0
 16 44  1  0  0  0
 17 45  1  0  0  0
 17 46  1  0  0  0
 17 47  1  0  0  0
 18 22  2  0  0  0
 18 48  1  0  0  0
 19 24  1  0  0  0
 19 49  1  0  0  0
 20 23  2  0  0  0
 20 50  1  0  0  0
 21 25  1  0  0  0
 21 51  1  0  0  0
 22 23  1  0  0  0
 23 52  1  0  0  0
 24 25  2  0  0  0
 24 53  1  0  0  0
 25 54  1  0  0  0
 26 55  1  0  0  0
 26 56  1  0  0  0
 26 57  1  0  0  0
 58 59  1  0  0  0
M  CHG  1  58   1
M  END
> <LID>
L001324

> <PC_CID>
408117

> <Names>
Morphine

> <CAS_Numbers>
23552-18-3

$$$$
5311018
                    3D
 Structure written by MMmdl.
 64 69  0  0  1  0            999 V2000
   -0.6464   -1.2630   -0.7574 O   0  0  0  0  0  0
    1.6951    2.5131    0.2033 O   0  0  0  0  0  0
   -0.6728   -4.1811   -0.2137 O   0  0  0  0  0  0
   -3.4278   -1.3321    0.4772 O   0  0  0  0  0  0
   -7.1937    1.8071   -0.6302 O   0  0  0  0  0  0
   -8.2554   -0.2069   -0.7441 O   0  0  0  0  0  0
   -2.5750    0.7647    0.5299 N   0  0  0  0  0  0
    1.1690    0.1470   -0.2092 C   0  0  1  0  0  0
    1.7264    1.2080    0.7677 C   0  0  1  0  0  0
    3.2186    0.8430    0.9988 C   0  0  1  0  0  0
   -0.3782    0.1121   -0.4153 C   0  0  2  0  0  0
    1.9198    0.2798   -1.5619 C   0  0  0  0  0  0
    1.3877   -1.2415    0.3124 C   0  0  0  0  0  0
    0.8809    1.3001    2.0551 C   0  0  0  0  0  0
   -1.1977    0.4215    0.8749 C   0  0  1  0  0  0
    3.3951   -0.5798    1.6137 C   0  0  0  0  0  0
    3.4481    0.1456   -1.3969 C   0  0  0  0  0  0
   -0.6005    1.5555    1.7262 C   0  0  0  0  0  0
    2.4613   -1.6782    1.1021 C   0  0  0  0  0  0
    0.3186   -1.9977   -0.1258 C   0  0  0  0  0  0
    5.4379    0.9756   -0.1555 C   0  0  0  0  0  0
    6.1308    1.7042   -1.2919 C   0  0  0  0  0  0
    7.6345    1.6258   -1.4288 C   0  0  0  0  0  0
    6.7521    0.9498   -2.4467 C   0  0  0  0  0  0
    2.4711   -3.0556    1.4094 C   0  0  0  0  0  0
    0.3494   -3.3715    0.1851 C   0  0  0  0  0  0
    1.4315   -3.8974    0.9361 C   0  0  0  0  0  0
   -3.5742   -0.1150    0.3573 C   0  0  0  0  0  0
   -4.8153    0.5591    0.0176 C   0  0  0  0  0  0
   -5.9429   -0.1508   -0.2006 C   0  0  0  0  0  0
   -7.2400    0.4616   -0.5493 C   0  0  0  0  0  0
   -8.3668    2.5325   -0.9570 C   0  0  0  0  0  0
    3.6441    1.5664    1.6964 H   0  0  0  0  0  0
   -0.6718    0.7885   -1.2195 H   0  0  0  0  0  0
    1.5694   -0.4721   -2.2705 H   0  0  0  0  0  0
    1.6904    1.2396   -2.0259 H   0  0  0  0  0  0
    0.9576    0.3797    2.6345 H   0  0  0  0  0  0
    1.2602    2.0932    2.7010 H   0  0  0  0  0  0
   -1.2047   -0.4617    1.5172 H   0  0  0  0  0  0
    3.2106   -0.5095    2.6860 H   0  0  0  0  0  0
    4.4242   -0.9266    1.5291 H   0  0  0  0  0  0
    3.7251   -0.8932   -1.2150 H   0  0  0  0  0  0
    3.9273    0.4239   -2.3354 H   0  0  0  0  0  0
   -1.1626    1.6451    2.6568 H   0  0  0  0  0  0
   -0.7164    2.5119    1.2151 H   0  0  0  0  0  0
    5.8031   -0.0504   -0.0937 H   0  0  0  0  0  0
    5.7279    1.4718    0.7714 H   0  0  0  0  0  0
    5.7005    2.6779   -1.5199 H   0  0  0  0  0  0
    0.7934    2.7638    0.0685 H   0  0  0  0  0  0
    8.1590    2.5276   -1.7386 H   0  0  0  0  0  0
    8.1764    0.9874   -0.7335 H   0  0  0  0  0  0
    6.7068   -0.1375   -2.4283 H   0  0  0  0  0  0
    6.6854    1.4015   -3.4344 H   0  0  0  0  0  0
   -2.7855    1.7450    0.4134 H   0  0  0  0  0  0
    3.2593   -3.4671    2.0227 H   0  0  0  0  0  0
    1.4476   -4.9491    1.1822 H   0  0  0  0  0  0
   -1.3584   -3.7032   -0.6562 H   0  0  0  0  0  0
   -4.8213    1.6376   -0.0576 H   0  0  0  0  0  0
   -5.9314   -1.2292   -0.1240 H   0  0  0  0  0  0
   -8.1485    3.6002   -0.9782 H   0  0  0  0  0  0
   -8.7428    2.2423   -1.9389 H   0  0  0  0  0  0
   -9.1497    2.3597   -0.2175 H   0  0  0  0  0  0
    3.9598    1.0045   -0.2937 N   0  3  2  0  0  0
    3.7366    1.9512   -0.5700 H   0  0  0  0  0  0
  1 11  1  0  0  0
  1 20  1  0  0  0
  2  9  1  0  0  0
  2 49  1  0  0  0
  3 26  1  0  0  0
  3 57  1  0  0  0
  4 28  2  0  0  0
  5 31  1  0  0  0
  5 32  1  0  0  0
  6 31  2  0  0  0
  7 15  1  0  0  0
  7 28  1  0  0  0
  7 54  1  0  0  0
  8  9  1  0  0  0
  8 11  1  0  0  0
  8 12  1  0  0  0
  8 13  1  0  0  0
  9 10  1  0  0  0
  9 14  1  0  0  0
 10 16  1  0  0  0
 10 33  1  0  0  0
 10 63  1  0  0  0
 11 15  1  0  0  0
 11 34  1  0  0  0
 12 17  1  0  0  0
 12 35  1  0  0  0
 12 36  1  0  0  0
 13 19  2  0  0  0
 13 20  1  0  0  0
 14 18  1  0  0  0
 14 37  1  0  0  0
 14 38  1  0  0  0
 15 18  1  0  0  0
 15 39  1  0  0  0
 16 19  1  0  0  0
 16 40  1  0  0  0
 16 41  1  0  0  0
 17 42  1  0  0  0
 17 43  1  0  0  0
 17 63  1  0  0  0
 18 44  1  0  0  0
 18 45  1  0  0  0
 19 25  1  0  0  0
 20 26  2  0  0  0
 21 22  1  0  0  0
 21 46  1  0  0  0
 21 47  1  0  0  0
 21 63  1  0  0  0
 22 23  1  0  0  0
 22 24  1  0  0  0
 22 48  1  0  0  0
 23 24  1  0  0  0
 23 50  1  0  0  0
 23 51  1  0  0  0
 24 52  1  0  0  0
 24 53  1  0  0  0
 25 27  2  0  0  0
 25 55  1  0  0  0
 26 27  1  0  0  0
 27 56  1  0  0  0
 28 29  1  0  0  0
 29 30  2  0  0  0
 29 58  1  0  0  0
 30 31  1  0  0  0
 30 59  1  0  0  0
 32 60  1  0  0  0
 32 61  1  0  0  0
 32 62  1  0  0  0
 63 64  1  0  0  0
M  CHG  1  63   1
M  END
> <LID>
L000641

> <PC_CID>
5311018

> <Names>
beta-funaltrexamine

> <CAS_Numbers>
72782-05-9

$$$$
6438353
                    3D
 Structure written by MMmdl.
 60 66  0  0  1  0            999 V2000
    0.5646    2.3194   -1.3627 O   0  0  0  0  0  0
   -0.5433   -1.9592   -0.3769 O   0  0  0  0  0  0
    2.8327    1.3238   -0.2739 O   0  0  0  0  0  0
    0.0616    5.1097   -0.4841 O   0  0  0  0  0  0
   -0.7357    0.4716   -0.6363 C   0  0  2  0  0  0
   -0.7799   -0.7414    0.3192 C   0  0  1  0  0  0
   -2.2204   -0.7868    0.8986 C   0  0  1  0  0  0
   -1.7363    0.2315   -1.7974 C   0  0  0  0  0  0
    0.6638    0.8896   -1.1872 C   0  0  2  0  0  0
   -1.1258    1.7283    0.0842 C   0  0  0  0  0  0
    0.3369   -0.6533    1.3819 C   0  0  0  0  0  0
   -3.1680   -0.0350   -1.2916 C   0  0  0  0  0  0
   -2.5852    0.5107    1.6849 C   0  0  0  0  0  0
   -2.0602    1.8353    1.1256 C   0  0  0  0  0  0
   -4.5491   -1.4272    0.2418 C   0  0  0  0  0  0
   -5.2394   -2.3725   -0.7247 C   0  0  0  0  0  0
   -0.3719    2.7488   -0.4621 C   0  0  0  0  0  0
    1.8366    0.6021   -0.2218 C   0  0  0  0  0  0
    1.7127   -0.5201    0.7401 C   0  0  0  0  0  0
   -6.4269   -3.1879   -0.2669 C   0  0  0  0  0  0
   -5.1157   -3.8708   -0.5675 C   0  0  0  0  0  0
   -2.3005    3.1435    1.5971 C   0  0  0  0  0  0
   -0.6348    4.0488    0.0146 C   0  0  0  0  0  0
   -1.6067    4.2428    1.0291 C   0  0  0  0  0  0
    2.7467   -1.3210    1.0898 C   0  0  0  0  0  0
    4.1129   -1.4038    0.5364 C   0  0  0  0  0  0
    5.1893   -1.6054    1.4267 C   0  0  0  0  0  0
    4.3834   -1.2921   -0.8473 C   0  0  0  0  0  0
    6.5117   -1.6861    0.9486 C   0  0  0  0  0  0
    5.7049   -1.3726   -1.3278 C   0  0  0  0  0  0
    6.7706   -1.5683   -0.4297 C   0  0  0  0  0  0
   -2.2861   -1.6300    1.5883 H   0  0  0  0  0  0
   -1.4064   -0.6123   -2.4045 H   0  0  0  0  0  0
   -1.7485    1.0870   -2.4743 H   0  0  0  0  0  0
    0.8775    0.3969   -2.1359 H   0  0  0  0  0  0
    0.3076   -1.5285    2.0327 H   0  0  0  0  0  0
    0.1920    0.2076    2.0352 H   0  0  0  0  0  0
   -3.6239    0.8872   -0.9302 H   0  0  0  0  0  0
   -3.7807   -0.3620   -2.1311 H   0  0  0  0  0  0
   -2.1655    0.4262    2.6877 H   0  0  0  0  0  0
   -3.6609    0.5952    1.8361 H   0  0  0  0  0  0
   -5.1595   -0.5318    0.3665 H   0  0  0  0  0  0
   -4.5044   -1.9125    1.2179 H   0  0  0  0  0  0
   -5.3122   -1.9998   -1.7442 H   0  0  0  0  0  0
   -7.2414   -3.3310   -0.9742 H   0  0  0  0  0  0
   -6.7250   -3.1130    0.7772 H   0  0  0  0  0  0
   -4.5426   -4.2495    0.2767 H   0  0  0  0  0  0
   -5.0560   -4.4675   -1.4755 H   0  0  0  0  0  0
   -0.4355   -2.6566    0.2529 H   0  0  0  0  0  0
   -2.9980    3.3073    2.4054 H   0  0  0  0  0  0
   -1.7976    5.2391    1.4003 H   0  0  0  0  0  0
    2.5398   -2.0783    1.8320 H   0  0  0  0  0  0
    0.6976    4.8504   -1.1338 H   0  0  0  0  0  0
    5.0039   -1.6945    2.4874 H   0  0  0  0  0  0
    3.5782   -1.1539   -1.5533 H   0  0  0  0  0  0
    7.3275   -1.8376    1.6400 H   0  0  0  0  0  0
    5.9002   -1.2861   -2.3865 H   0  0  0  0  0  0
    7.7842   -1.6300   -0.7975 H   0  0  0  0  0  0
   -3.1836   -1.0634   -0.2154 N   0  3  2  0  0  0
   -2.8157   -1.9021   -0.6433 H   0  0  0  0  0  0
  1  9  1  0  0  0
  1 17  1  0  0  0
  2  6  1  0  0  0
  2 49  1  0  0  0
  3 18  2  0  0  0
  4 23  1  0  0  0
  4 53  1  0  0  0
  5  6  1  0  0  0
  5  8  1  0  0  0
  5  9  1  0  0  0
  5 10  1  0  0  0
  6  7  1  0  0  0
  6 11  1  0  0  0
  7 13  1  0  0  0
  7 32  1  0  0  0
  7 59  1  0  0  0
  8 12  1  0  0  0
  8 33  1  0  0  0
  8 34  1  0  0  0
  9 18  1  0  0  0
  9 35  1  0  0  0
 10 14  2  0  0  0
 10 17  1  0  0  0
 11 19  1  0  0  0
 11 36  1  0  0  0
 11 37  1  0  0  0
 12 38  1  0  0  0
 12 39  1  0  0  0
 12 59  1  0  0  0
 13 14  1  0  0  0
 13 40  1  0  0  0
 13 41  1  0  0  0
 14 22  1  0  0  0
 15 16  1  0  0  0
 15 42  1  0  0  0
 15 43  1  0  0  0
 15 59  1  0  0  0
 16 20  1  0  0  0
 16 21  1  0  0  0
 16 44  1  0  0  0
 17 23  2  0  0  0
 18 19  1  0  0  0
 19 25  2  0  0  0
 20 21  1  0  0  0
 20 45  1  0  0  0
 20 46  1  0  0  0
 21 47  1  0  0  0
 21 48  1  0  0  0
 22 24  2  0  0  0
 22 50  1  0  0  0
 23 24  1  0  0  0
 24 51  1  0  0  0
 25 26  1  0  0  0
 25 52  1  0  0  0
 26 27  2  0  0  0
 26 28  1  0  0  0
 27 29  1  0  0  0
 27 54  1  0  0  0
 28 30  2  0  0  0
 28 55  1  0  0  0
 29 31  2  0  0  0
 29 56  1  0  0  0
 30 31  1  0  0  0
 30 57  1  0  0  0
 31 58  1  0  0  0
 59 60  1  0  0  0
M  CHG  1  59   1
M  END
> <LID>
L000138

> <PC_CID>
6438353

> <Names>
7-benzylidenenaltrexone

> <CAS_Numbers>
129468-28-6

$$$$
16362
                    3D
 Structure written by MMmdl.
 64 68  0  0  1  0            999 V2000
   -8.9186   -2.7009    1.3555 F   0  0  0  0  0  0
   -4.2724    4.6740   -2.2751 F   0  0  0  0  0  0
    4.6394    2.2109   -0.9552 O   0  0  0  0  0  0
    5.3047    0.2458    0.0729 N   0  0  0  0  0  0
    6.8190    1.5291   -0.8538 N   0  0  0  0  0  0
    4.0286   -0.3061    0.5535 C   0  0  0  0  0  0
    3.3429    0.6218    1.5748 C   0  0  0  0  0  0
    3.0570   -0.6130   -0.6025 C   0  0  0  0  0  0
    2.0105    0.0220    2.0538 C   0  0  0  0  0  0
    1.7315   -1.1830   -0.0707 C   0  0  0  0  0  0
   -0.2420   -0.7010    1.3577 C   0  0  0  0  0  0
   -1.3276   -0.4668    0.2924 C   0  0  0  0  0  0
    6.5552   -0.3767    0.2624 C   0  0  0  0  0  0
   -2.7344   -0.8254    0.8031 C   0  0  0  0  0  0
    5.5012    1.4045   -0.6104 C   0  0  0  0  0  0
   -3.8418   -0.6502   -0.2622 C   0  0  0  0  0  0
    7.5022    0.4376   -0.3238 C   0  0  0  0  0  0
    6.9166   -1.5797    0.8979 C   0  0  0  0  0  0
   -5.1953   -1.1941    0.1866 C   0  0  0  0  0  0
   -3.9586    0.7774   -0.7895 C   0  0  0  0  0  0
    8.8709    0.1273   -0.3269 C   0  0  0  0  0  0
    8.2900   -1.9208    0.9116 C   0  0  0  0  0  0
    9.2570   -1.0770    0.3060 C   0  0  0  0  0  0
   -5.7385   -0.8607    1.4486 C   0  0  0  0  0  0
   -3.8944    1.0196   -2.1795 C   0  0  0  0  0  0
   -5.9285   -2.0389   -0.6760 C   0  0  0  0  0  0
   -4.1336    1.8672    0.0932 C   0  0  0  0  0  0
   -6.9919   -1.3689    1.8418 C   0  0  0  0  0  0
   -3.9998    2.3320   -2.6798 C   0  0  0  0  0  0
   -7.1818   -2.5470   -0.2825 C   0  0  0  0  0  0
   -4.2390    3.1793   -0.4075 C   0  0  0  0  0  0
   -7.7138   -2.2127    0.9770 C   0  0  0  0  0  0
   -4.1717    3.4124   -1.7941 C   0  0  0  0  0  0
    4.2300   -1.2484    1.0614 H   0  0  0  0  0  0
    4.0008    0.7867    2.4289 H   0  0  0  0  0  0
    3.1521    1.6028    1.1386 H   0  0  0  0  0  0
    2.8472    0.2873   -1.1808 H   0  0  0  0  0  0
    3.5126   -1.3238   -1.2931 H   0  0  0  0  0  0
    2.1896   -0.8985    2.6120 H   0  0  0  0  0  0
    1.5351    0.7221    2.7420 H   0  0  0  0  0  0
    1.0644   -1.3569   -0.9140 H   0  0  0  0  0  0
    1.9025   -2.1528    0.3996 H   0  0  0  0  0  0
   -0.2080   -1.7504    1.6548 H   0  0  0  0  0  0
   -0.5235   -0.1387    2.2494 H   0  0  0  0  0  0
   -1.3049    0.5791   -0.0161 H   0  0  0  0  0  0
   -1.1190   -1.0566   -0.5996 H   0  0  0  0  0  0
   -2.7286   -1.8658    1.1310 H   0  0  0  0  0  0
   -2.9552   -0.2320    1.6901 H   0  0  0  0  0  0
   -3.5339   -1.2703   -1.1057 H   0  0  0  0  0  0
    7.2679    2.2889   -1.3438 H   0  0  0  0  0  0
    6.1870   -2.2266    1.3607 H   0  0  0  0  0  0
    9.5973    0.7779   -0.7913 H   0  0  0  0  0  0
    8.6066   -2.8362    1.3897 H   0  0  0  0  0  0
   10.2999   -1.3576    0.3287 H   0  0  0  0  0  0
   -5.2029   -0.2116    2.1243 H   0  0  0  0  0  0
   -3.7649    0.1997   -2.8708 H   0  0  0  0  0  0
   -5.5344   -2.3008   -1.6471 H   0  0  0  0  0  0
   -4.1889    1.7056    1.1591 H   0  0  0  0  0  0
   -7.4008   -1.1101    2.8073 H   0  0  0  0  0  0
   -3.9497    2.5101   -3.7439 H   0  0  0  0  0  0
   -7.7361   -3.1926   -0.9476 H   0  0  0  0  0  0
   -4.3725    4.0078    0.2723 H   0  0  0  0  0  0
    1.1028   -0.2569    0.9098 N   0  3  0  0  0  0
    0.9699    0.6263    0.4376 H   0  0  0  0  0  0
  1 32  1  0  0  0
  2 33  1  0  0  0
  3 15  2  0  0  0
  4  6  1  0  0  0
  4 13  1  0  0  0
  4 15  1  0  0  0
  5 15  1  0  0  0
  5 17  1  0  0  0
  5 50  1  0  0  0
  6  7  1  0  0  0
  6  8  1  0  0  0
  6 34  1  0  0  0
  7  9  1  0  0  0
  7 35  1  0  0  0
  7 36  1  0  0  0
  8 10  1  0  0  0
  8 37  1  0  0  0
  8 38  1  0  0  0
  9 39  1  0  0  0
  9 40  1  0  0  0
  9 63  1  0  0  0
 10 41  1  0  0  0
 10 42  1  0  0  0
 10 63  1  0  0  0
 11 12  1  0  0  0
 11 43  1  0  0  0
 11 44  1  0  0  0
 11 63  1  0  0  0
 12 14  1  0  0  0
 12 45  1  0  0  0
 12 46  1  0  0  0
 13 17  1  0  0  0
 13 18  2  0  0  0
 14 16  1  0  0  0
 14 47  1  0  0  0
 14 48  1  0  0  0
 16 19  1  0  0  0
 16 20  1  0  0  0
 16 49  1  0  0  0
 17 21  2  0  0  0
 18 22  1  0  0  0
 18 51  1  0  0  0
 19 24  2  0  0  0
 19 26  1  0  0  0
 20 25  2  0  0  0
 20 27  1  0  0  0
 21 23  1  0  0  0
 21 52  1  0  0  0
 22 23  2  0  0  0
 22 53  1  0  0  0
 23 54  1  0  0  0
 24 28  1  0  0  0
 24 55  1  0  0  0
 25 29  1  0  0  0
 25 56  1  0  0  0
 26 30  2  0  0  0
 26 57  1  0  0  0
 27 31  2  0  0  0
 27 58  1  0  0  0
 28 32  2  0  0  0
 28 59  1  0  0  0
 29 33  2  0  0  0
 29 60  1  0  0  0
 30 32  1  0  0  0
 30 61  1  0  0  0
 31 33  1  0  0  0
 31 62  1  0  0  0
 63 64  1  0  0  0
M  CHG  1  63   1
M  END
> <LID>
L000494

> <PC_CID>
16362

> <Names>
Pimozide

> <CAS_Numbers>
2062-78-4

$$$$
5486827
                    3D
 Structure written by MMmdl.
 57 64  0  0  1  0            999 V2000
    0.9748    1.9149   -1.5501 O   0  0  0  0  0  0
   -0.6399   -2.2189   -0.6932 O   0  0  0  0  0  0
    3.2043    0.0372   -1.4282 O   0  0  0  0  0  0
    1.1872    4.5958   -0.3228 O   0  0  0  0  0  0
   -0.5364    0.2252   -0.7737 C   0  0  1  0  0  0
   -0.5706   -1.0535    0.1181 C   0  0  1  0  0  0
   -1.8831   -0.9616    0.9465 C   0  0  1  0  0  0
    0.7761    0.4900   -1.5807 C   0  0  2  0  0  0
   -1.7690    0.2432   -1.7140 C   0  0  0  0  0  0
   -0.5502    1.4375    0.1141 C   0  0  0  0  0  0
    0.7088   -1.2527    0.9879 C   0  0  0  0  0  0
   -1.9218    0.3046    1.8578 C   0  0  0  0  0  0
   -3.0993    0.1116   -0.9512 C   0  0  0  0  0  0
   -1.2552    1.5744    1.3217 C   0  0  0  0  0  0
   -4.3539   -1.2775    0.6850 C   0  0  0  0  0  0
    1.9525   -0.1363   -0.9055 C   0  0  0  0  0  0
    1.9529   -0.9067    0.2261 C   0  0  0  0  0  0
   -5.3675   -1.8973   -0.2590 C   0  0  0  0  0  0
    0.2977    2.3704   -0.4544 C   0  0  0  0  0  0
   -6.8023   -2.0684    0.1860 C   0  0  0  0  0  0
   -6.4646   -1.0683   -0.8898 C   0  0  0  0  0  0
   -1.1480    2.8307    1.9549 C   0  0  0  0  0  0
    3.3252   -1.2549    0.4593 C   0  0  0  0  0  0
    0.3824    3.6213    0.1892 C   0  0  0  0  0  0
    4.0645   -0.6477   -0.5917 C   0  0  0  0  0  0
   -0.3521    3.8527    1.3790 C   0  0  0  0  0  0
    4.0562   -2.0016    1.4125 C   0  0  0  0  0  0
    5.4595   -0.7615   -0.7120 C   0  0  0  0  0  0
    5.4588   -2.1280    1.3097 C   0  0  0  0  0  0
    6.1600   -1.5111    0.2522 C   0  0  0  0  0  0
   -1.9468   -1.8430    1.5867 H   0  0  0  0  0  0
    0.7059    0.1252   -2.6060 H   0  0  0  0  0  0
   -1.6918   -0.5708   -2.4358 H   0  0  0  0  0  0
   -1.7816    1.1593   -2.3062 H   0  0  0  0  0  0
    0.7619   -2.2704    1.3775 H   0  0  0  0  0  0
    0.6673   -0.6104    1.8668 H   0  0  0  0  0  0
   -1.4006    0.0678    2.7856 H   0  0  0  0  0  0
   -2.9380    0.5473    2.1656 H   0  0  0  0  0  0
   -3.3397    1.0396   -0.4315 H   0  0  0  0  0  0
   -3.9015   -0.0467   -1.6719 H   0  0  0  0  0  0
   -4.7602   -0.3624    1.1178 H   0  0  0  0  0  0
   -4.2082   -1.9790    1.5073 H   0  0  0  0  0  0
   -4.9722   -2.7184   -0.8547 H   0  0  0  0  0  0
   -0.4831   -2.9782   -0.1516 H   0  0  0  0  0  0
   -7.0826   -1.6776    1.1624 H   0  0  0  0  0  0
   -7.3181   -2.9774   -0.1173 H   0  0  0  0  0  0
   -6.7521   -1.3108   -1.9109 H   0  0  0  0  0  0
   -6.5200   -0.0131   -0.6290 H   0  0  0  0  0  0
   -1.6528    3.0076    2.8933 H   0  0  0  0  0  0
   -0.2755    4.8090    1.8756 H   0  0  0  0  0  0
    3.5346   -2.4799    2.2281 H   0  0  0  0  0  0
    5.9816   -0.2833   -1.5274 H   0  0  0  0  0  0
    1.6378    4.3169   -1.1056 H   0  0  0  0  0  0
    6.0004   -2.7022    2.0474 H   0  0  0  0  0  0
    7.2332   -1.6138    0.1824 H   0  0  0  0  0  0
   -3.0544   -1.0178    0.0147 N   0  3  2  0  0  0
   -2.8751   -1.8402   -0.5451 H   0  0  0  0  0  0
  1  8  1  0  0  0
  1 19  1  0  0  0
  2  6  1  0  0  0
  2 44  1  0  0  0
  3 16  1  0  0  0
  3 25  1  0  0  0
  4 24  1  0  0  0
  4 53  1  0  0  0
  5  6  1  0  0  0
  5  8  1  0  0  0
  5  9  1  0  0  0
  5 10  1  0  0  0
  6  7  1  0  0  0
  6 11  1  0  0  0
  7 12  1  0  0  0
  7 31  1  0  0  0
  7 56  1  0  0  0
  8 16  1  0  0  0
  8 32  1  0  0  0
  9 13  1  0  0  0
  9 33  1  0  0  0
  9 34  1  0  0  0
 10 14  2  0  0  0
 10 19  1  0  0  0
 11 17  1  0  0  0
 11 35  1  0  0  0
 11 36  1  0  0  0
 12 14  1  0  0  0
 12 37  1  0  0  0
 12 38  1  0  0  0
 13 39  1  0  0  0
 13 40  1  0  0  0
 13 56  1  0  0  0
 14 22  1  0  0  0
 15 18  1  0  0  0
 15 41  1  0  0  0
 15 42  1  0  0  0
 15 56  1  0  0  0
 16 17  2  0  0  0
 17 23  1  0  0  0
 18 20  1  0  0  0
 18 21  1  0  0  0
 18 43  1  0  0  0
 19 24  2  0  0  0
 20 21  1  0  0  0
 20 45  1  0  0  0
 20 46  1  0  0  0
 21 47  1  0  0  0
 21 48  1  0  0  0
 22 26  2  0  0  0
 22 49  1  0  0  0
 23 25  1  0  0  0
 23 27  2  0  0  0
 24 26  1  0  0  0
 25 28  2  0  0  0
 26 50  1  0  0  0
 27 29  1  0  0  0
 27 51  1  0  0  0
 28 30  1  0  0  0
 28 52  1  0  0  0
 29 30  2  0  0  0
 29 54  1  0  0  0
 30 55  1  0  0  0
 56 57  1  0  0  0
M  CHG  1  56   1
M  END
> <LID>
L024024

> <PC_CID>
5486827

> <Names>
naltrindole benzofuran

> <CAS_Numbers>
111555-58-9

$$$$
40400
                    3D
 Structure written by MMmdl.
 76 82  0  0  1  0            999 V2000
    2.6817   -2.0215   -4.0839 O   0  0  0  0  0  0
   -0.3660   -1.6842   -4.8935 O   0  0  0  0  0  0
    1.3489   -3.6116   -1.7417 O   0  0  0  0  0  0
    4.6666   -4.0985   -3.3599 O   0  0  0  0  0  0
    1.3153    0.3972   -1.8108 C   0  0  1  0  0  0
    2.4134    0.0069   -2.8231 C   0  0  2  0  0  0
    0.3166   -1.0407   -3.8124 C   0  0  1  0  0  0
    1.8596   -0.8398   -4.0062 C   0  0  2  0  0  0
   -0.0537   -1.7297   -2.4423 C   0  0  2  0  0  0
    0.5698   -0.8697   -1.2838 C   0  0  0  0  0  0
    2.0680    1.1591   -0.6766 C   0  0  1  0  0  0
    0.2143    1.2062   -2.5412 C   0  0  0  0  0  0
   -0.3012    0.3951   -3.7561 C   0  0  0  0  0  0
    3.1682    1.2549   -3.3606 C   0  0  0  0  0  0
    3.3582   -0.9365   -2.1635 C   0  0  0  0  0  0
    3.1830    0.2811   -0.0017 C   0  0  0  0  0  0
    0.0689   -3.3132   -2.2632 C   0  0  2  0  0  0
    3.6886    2.1831   -2.2516 C   0  0  0  0  0  0
    3.8666   -0.7929   -0.8639 C   0  0  0  0  0  0
    3.5292   -2.0118   -3.0099 C   0  0  0  0  0  0
    3.0427    3.4109   -0.1899 C   0  0  0  0  0  0
   -0.9994   -3.9415   -1.2620 C   0  0  0  0  0  0
    3.0801    4.8263   -0.7355 C   0  0  0  0  0  0
    0.0768   -4.0926   -3.6046 C   0  0  0  0  0  0
    4.7721   -1.7940   -0.4537 C   0  0  0  0  0  0
    4.4402   -3.0006   -2.5827 C   0  0  0  0  0  0
    3.6415    5.9444    0.1134 C   0  0  0  0  0  0
    4.3862    5.4886   -1.1152 C   0  0  0  0  0  0
    0.0617   -1.4284   -6.2255 C   0  0  0  0  0  0
    5.0817   -2.8710   -1.3236 C   0  0  0  0  0  0
   -0.7140   -5.4384   -0.9611 C   0  0  0  0  0  0
   -1.0187   -3.2248    0.1074 C   0  0  0  0  0  0
   -2.4391   -3.8796   -1.8311 C   0  0  0  0  0  0
    2.0316   -0.2950   -4.9348 H   0  0  0  0  0  0
   -1.1228   -1.5434   -2.3777 H   0  0  0  0  0  0
   -0.2223   -0.5365   -0.6141 H   0  0  0  0  0  0
    1.2181   -1.4606   -0.6429 H   0  0  0  0  0  0
    1.3393    1.4406    0.0849 H   0  0  0  0  0  0
    0.5642    2.1816   -2.8772 H   0  0  0  0  0  0
   -0.6106    1.4171   -1.8591 H   0  0  0  0  0  0
   -1.3902    0.3412   -3.7218 H   0  0  0  0  0  0
   -0.0661    0.9485   -4.6651 H   0  0  0  0  0  0
    2.5073    1.8325   -4.0073 H   0  0  0  0  0  0
    3.9987    0.9490   -3.9986 H   0  0  0  0  0  0
    2.7184   -0.2632    0.8211 H   0  0  0  0  0  0
    3.9513    0.8908    0.4720 H   0  0  0  0  0  0
    3.9991    3.1269   -2.6997 H   0  0  0  0  0  0
    4.5813    1.7620   -1.7884 H   0  0  0  0  0  0
    4.0106    3.1540    0.2422 H   0  0  0  0  0  0
    2.3192    3.3996    0.6260 H   0  0  0  0  0  0
    2.2064    5.0952   -1.3268 H   0  0  0  0  0  0
   -0.8635   -3.9952   -4.1451 H   0  0  0  0  0  0
    0.2617   -5.1571   -3.4729 H   0  0  0  0  0  0
    0.8689   -3.7534   -4.2699 H   0  0  0  0  0  0
    5.1940   -1.7674    0.5402 H   0  0  0  0  0  0
    1.9987   -3.3384   -2.3725 H   0  0  0  0  0  0
    4.0664    5.6847    1.0812 H   0  0  0  0  0  0
    3.1415    6.9099    0.0684 H   0  0  0  0  0  0
    4.3809    6.1483   -1.9806 H   0  0  0  0  0  0
    5.3056    4.9261   -0.9646 H   0  0  0  0  0  0
    1.0579   -1.8321   -6.4076 H   0  0  0  0  0  0
    0.0579   -0.3668   -6.4699 H   0  0  0  0  0  0
   -0.6179   -1.9260   -6.9169 H   0  0  0  0  0  0
    5.7663   -3.6368   -0.9896 H   0  0  0  0  0  0
   -1.4198   -5.8339   -0.2297 H   0  0  0  0  0  0
   -0.8143   -6.0714   -1.8413 H   0  0  0  0  0  0
    0.2818   -5.5969   -0.5468 H   0  0  0  0  0  0
   -1.6409   -3.7589    0.8264 H   0  0  0  0  0  0
   -0.0225   -3.1511    0.5439 H   0  0  0  0  0  0
   -1.4416   -2.2248    0.0374 H   0  0  0  0  0  0
   -2.7726   -2.8646   -2.0395 H   0  0  0  0  0  0
   -3.1545   -4.2981   -1.1221 H   0  0  0  0  0  0
   -2.5454   -4.4564   -2.7490 H   0  0  0  0  0  0
    5.2766   -4.7090   -2.9756 H   0  0  0  0  0  0
    2.6407    2.4258   -1.2264 N   0  3  2  0  0  0
    1.8716    2.8629   -1.7138 H   0  0  0  0  0  0
  1  8  1  0  0  0
  1 20  1  0  0  0
  2  7  1  0  0  0
  2 29  1  0  0  0
  3 17  1  0  0  0
  3 56  1  0  0  0
  4 26  1  0  0  0
  4 74  1  0  0  0
  5  6  1  0  0  0
  5 10  1  0  0  0
  5 11  1  0  0  0
  5 12  1  0  0  0
  6  8  1  0  0  0
  6 14  1  0  0  0
  6 15  1  0  0  0
  7  8  1  0  0  0
  7  9  1  0  0  0
  7 13  1  0  0  0
  8 34  1  0  0  0
  9 10  1  0  0  0
  9 17  1  0  0  0
  9 35  1  0  0  0
 10 36  1  0  0  0
 10 37  1  0  0  0
 11 16  1  0  0  0
 11 38  1  0  0  0
 11 75  1  0  0  0
 12 13  1  0  0  0
 12 39  1  0  0  0
 12 40  1  0  0  0
 13 41  1  0  0  0
 13 42  1  0  0  0
 14 18  1  0  0  0
 14 43  1  0  0  0
 14 44  1  0  0  0
 15 19  2  0  0  0
 15 20  1  0  0  0
 16 19  1  0  0  0
 16 45  1  0  0  0
 16 46  1  0  0  0
 17 22  1  0  0  0
 17 24  1  0  0  0
 18 47  1  0  0  0
 18 48  1  0  0  0
 18 75  1  0  0  0
 19 25  1  0  0  0
 20 26  2  0  0  0
 21 23  1  0  0  0
 21 49  1  0  0  0
 21 50  1  0  0  0
 21 75  1  0  0  0
 22 31  1  0  0  0
 22 32  1  0  0  0
 22 33  1  0  0  0
 23 27  1  0  0  0
 23 28  1  0  0  0
 23 51  1  0  0  0
 24 52  1  0  0  0
 24 53  1  0  0  0
 24 54  1  0  0  0
 25 30  2  0  0  0
 25 55  1  0  0  0
 26 30  1  0  0  0
 27 28  1  0  0  0
 27 57  1  0  0  0
 27 58  1  0  0  0
 28 59  1  0  0  0
 28 60  1  0  0  0
 29 61  1  0  0  0
 29 62  1  0  0  0
 29 63  1  0  0  0
 30 64  1  0  0  0
 31 65  1  0  0  0
 31 66  1  0  0  0
 31 67  1  0  0  0
 32 68  1  0  0  0
 32 69  1  0  0  0
 32 70  1  0  0  0
 33 71  1  0  0  0
 33 72  1  0  0  0
 33 73  1  0  0  0
 75 76  1  0  0  0
M  CHG  1  75   1
M  END
> <LID>
L001234

> <PC_CID>
40400

> <Names>
Buprenorphine

> <CAS_Numbers>
52485-79-7;53152-21-9

$$$$
22266
                    3D
 Structure written by MMmdl.
 51 52  0  0  1  0            999 V2000
    3.9997    6.6783   -2.5539 O   0  0  0  0  0  0
    4.0883    6.4454   -0.1252 C   0  0  0  0  0  0
    2.5223    6.5071   -0.2374 C   0  0  0  0  0  0
    1.8013    5.2940   -0.9008 C   0  0  1  0  0  0
    4.6352    7.6350    0.7108 C   0  0  0  0  0  0
    4.4480    5.0936    0.5455 C   0  0  0  0  0  0
    4.7084    6.5973   -1.5479 C   0  0  0  0  0  0
    1.1825    4.3227    0.1297 C   0  0  0  0  0  0
    6.2391    6.6546   -1.6764 C   0  0  0  0  0  0
    5.8835    7.5318    1.3795 C   0  0  0  0  0  0
    4.9471    3.9780   -0.1784 C   0  0  0  0  0  0
    3.9379    8.8676    0.8077 C   0  0  0  0  0  0
    4.2161    4.9321    1.9347 C   0  0  0  0  0  0
    0.4932    4.7596   -2.9506 C   0  0  0  0  0  0
   -0.4181    6.3783   -1.3381 C   0  0  0  0  0  0
    6.7473    6.3417   -3.0917 C   0  0  0  0  0  0
    6.4032    8.6030    2.1302 C   0  0  0  0  0  0
    5.2310    2.7618    0.4720 C   0  0  0  0  0  0
    4.4569    9.9401    1.5585 C   0  0  0  0  0  0
    4.5009    3.7169    2.5855 C   0  0  0  0  0  0
    5.6884    9.8092    2.2232 C   0  0  0  0  0  0
    5.0123    2.6306    1.8546 C   0  0  0  0  0  0
    2.0968    6.6573    0.7561 H   0  0  0  0  0  0
    2.2465    7.4037   -0.7929 H   0  0  0  0  0  0
    2.5434    4.7282   -1.4635 H   0  0  0  0  0  0
    0.4714    4.8229    0.7873 H   0  0  0  0  0  0
    0.6631    3.4966   -0.3552 H   0  0  0  0  0  0
    1.9454    3.8768    0.7650 H   0  0  0  0  0  0
    6.5727    7.6510   -1.3864 H   0  0  0  0  0  0
    6.6861    5.9565   -0.9696 H   0  0  0  0  0  0
    5.1145    4.0235   -1.2437 H   0  0  0  0  0  0
    6.4635    6.6226    1.3211 H   0  0  0  0  0  0
    3.8123    5.7487    2.5153 H   0  0  0  0  0  0
    2.9959    9.0292    0.3101 H   0  0  0  0  0  0
   -0.1321    5.1996   -3.7281 H   0  0  0  0  0  0
    1.4033    4.3980   -3.4305 H   0  0  0  0  0  0
   -0.0400    3.9041   -2.5355 H   0  0  0  0  0  0
   -0.9969    6.8649   -2.1237 H   0  0  0  0  0  0
   -1.0587    5.6308   -0.8689 H   0  0  0  0  0  0
   -0.1745    7.1367   -0.5938 H   0  0  0  0  0  0
    7.8367    6.3612   -3.1205 H   0  0  0  0  0  0
    6.4263    5.3522   -3.4192 H   0  0  0  0  0  0
    6.3868    7.0723   -3.8168 H   0  0  0  0  0  0
    5.6138    1.9251   -0.0939 H   0  0  0  0  0  0
    7.3536    8.4988    2.6328 H   0  0  0  0  0  0
    4.3225    3.6179    3.6461 H   0  0  0  0  0  0
    3.9085   10.8686    1.6214 H   0  0  0  0  0  0
    6.0858   10.6330    2.7977 H   0  0  0  0  0  0
    5.2297    1.6967    2.3519 H   0  0  0  0  0  0
    0.8056    5.7649   -1.9083 N   0  3  0  0  0  0
    1.2784    6.5078   -2.4046 H   0  0  0  0  0  0
  1  7  2  0  0  0
  2  3  1  0  0  0
  2  5  1  0  0  0
  2  6  1  0  0  0
  2  7  1  0  0  0
  3  4  1  0  0  0
  3 23  1  0  0  0
  3 24  1  0  0  0
  4  8  1  0  0  0
  4 25  1  0  0  0
  4 50  1  0  0  0
  5 10  2  0  0  0
  5 12  1  0  0  0
  6 11  2  0  0  0
  6 13  1  0  0  0
  7  9  1  0  0  0
  8 26  1  0  0  0
  8 27  1  0  0  0
  8 28  1  0  0  0
  9 16  1  0  0  0
  9 29  1  0  0  0
  9 30  1  0  0  0
 10 17  1  0  0  0
 10 32  1  0  0  0
 11 18  1  0  0  0
 11 31  1  0  0  0
 12 19  2  0  0  0
 12 34  1  0  0  0
 13 20  2  0  0  0
 13 33  1  0  0  0
 14 35  1  0  0  0
 14 36  1  0  0  0
 14 37  1  0  0  0
 14 50  1  0  0  0
 15 38  1  0  0  0
 15 39  1  0  0  0
 15 40  1  0  0  0
 15 50  1  0  0  0
 16 41  1  0  0  0
 16 42  1  0  0  0
 16 43  1  0  0  0
 17 21  2  0  0  0
 17 45  1  0  0  0
 18 22  2  0  0  0
 18 44  1  0  0  0
 19 21  1  0  0  0
 19 47  1  0  0  0
 20 22  1  0  0  0
 20 46  1  0  0  0
 21 48  1  0  0  0
 22 49  1  0  0  0
 50 51  1  0  0  0
M  CHG  1  50   1
M  END
> <LID>
L001233

> <PC_CID>
22266

> <Names>
l-Amidone hydrochloride

> <CAS_Numbers>
5967-73-7

$$$$
5311304
                    3D
 Structure written by MMmdl.
 54 59  0  0  1  0            999 V2000
   -2.9105   -0.3631    1.4269 O   0  0  0  0  0  0
    1.0529   -2.3111    0.2639 O   0  0  0  0  0  0
   -3.4335   -1.7227   -0.8722 O   0  0  0  0  0  0
   -4.6053    2.0031    0.8158 O   0  0  0  0  0  0
   -0.7015   -0.6152    0.5958 C   0  0  1  0  0  0
    0.2370   -1.3474   -0.3930 C   0  0  1  0  0  0
    1.1904   -0.2618   -0.9618 C   0  0  1  0  0  0
   -1.9538   -1.3939    1.0989 C   0  0  2  0  0  0
    0.1633   -0.0869    1.7742 C   0  0  0  0  0  0
   -1.3800    0.5666   -0.0255 C   0  0  0  0  0  0
   -0.5435   -2.1575   -1.4482 C   0  0  0  0  0  0
   -2.5903   -2.3748    0.0608 C   0  0  2  0  0  0
    0.4274    0.8858   -1.6922 C   0  0  0  0  0  0
    1.3003    0.8405    1.2903 C   0  0  0  0  0  0
   -1.5416   -3.1274   -0.7772 C   0  0  0  0  0  0
   -0.8651    1.3825   -1.0423 C   0  0  0  0  0  0
   -2.6077    0.6884    0.6000 C   0  0  0  0  0  0
    3.2047    1.0738   -0.3013 C   0  0  0  0  0  0
    4.4115    0.9219    0.6215 C   0  0  0  0  0  0
   -1.6647    2.4892   -1.3984 C   0  0  0  0  0  0
    5.7354    1.6025    0.2405 C   0  0  0  0  0  0
    5.1922   -0.4021    0.6370 C   0  0  0  0  0  0
   -3.3853    1.8073    0.2390 C   0  0  0  0  0  0
    6.4744    0.4068    0.8461 C   0  0  0  0  0  0
   -2.9049    2.7095   -0.7448 C   0  0  0  0  0  0
    1.8553   -0.7381   -1.6843 H   0  0  0  0  0  0
   -1.6927   -1.9647    1.9909 H   0  0  0  0  0  0
    0.5889   -0.9190    2.3359 H   0  0  0  0  0  0
   -0.4548    0.4531    2.4929 H   0  0  0  0  0  0
    0.1468   -2.7169   -2.0813 H   0  0  0  0  0  0
   -1.0839   -1.4892   -2.1190 H   0  0  0  0  0  0
   -3.2172   -3.0916    0.5922 H   0  0  0  0  0  0
    0.1453    0.5291   -2.6831 H   0  0  0  0  0  0
    1.0788    1.7400   -1.8741 H   0  0  0  0  0  0
    0.9017    1.8130    1.0000 H   0  0  0  0  0  0
    1.9729    1.0325    2.1254 H   0  0  0  0  0  0
   -2.0375   -3.7289   -1.5405 H   0  0  0  0  0  0
   -1.0130   -3.8401   -0.1440 H   0  0  0  0  0  0
    2.9033    2.1198   -0.3711 H   0  0  0  0  0  0
    3.4950    0.7783   -1.3104 H   0  0  0  0  0  0
    0.4983   -2.9999    0.5986 H   0  0  0  0  0  0
    4.1730    1.2064    1.6478 H   0  0  0  0  0  0
   -1.3420    3.1601   -2.1809 H   0  0  0  0  0  0
    5.9204    2.5540    0.7402 H   0  0  0  0  0  0
    5.8794    1.6819   -0.8385 H   0  0  0  0  0  0
    5.1741   -0.9195   -0.3238 H   0  0  0  0  0  0
    4.9368   -1.0728    1.4581 H   0  0  0  0  0  0
    7.3337    0.0602    0.2712 H   0  0  0  0  0  0
    6.7198    0.5488    1.8999 H   0  0  0  0  0  0
   -4.0843   -1.2318   -0.3932 H   0  0  0  0  0  0
   -3.5087    3.5593   -1.0277 H   0  0  0  0  0  0
   -4.8122    1.3437    1.4606 H   0  0  0  0  0  0
    2.0565    0.2469    0.1513 N   0  3  2  0  0  0
    2.4695   -0.5992    0.5201 H   0  0  0  0  0  0
  1  8  1  0  0  0
  1 17  1  0  0  0
  2  6  1  0  0  0
  2 41  1  0  0  0
  3 12  1  0  0  0
  3 50  1  0  0  0
  4 23  1  0  0  0
  4 52  1  0  0  0
  5  6  1  0  0  0
  5  8  1  0  0  0
  5  9  1  0  0  0
  5 10  1  0  0  0
  6  7  1  0  0  0
  6 11  1  0  0  0
  7 13  1  0  0  0
  7 26  1  0  0  0
  7 53  1  0  0  0
  8 12  1  0  0  0
  8 27  1  0  0  0
  9 14  1  0  0  0
  9 28  1  0  0  0
  9 29  1  0  0  0
 10 16  2  0  0  0
 10 17  1  0  0  0
 11 15  1  0  0  0
 11 30  1  0  0  0
 11 31  1  0  0  0
 12 15  1  0  0  0
 12 32  1  0  0  0
 13 16  1  0  0  0
 13 33  1  0  0  0
 13 34  1  0  0  0
 14 35  1  0  0  0
 14 36  1  0  0  0
 14 53  1  0  0  0
 15 37  1  0  0  0
 15 38  1  0  0  0
 16 20  1  0  0  0
 17 23  2  0  0  0
 18 19  1  0  0  0
 18 39  1  0  0  0
 18 40  1  0  0  0
 18 53  1  0  0  0
 19 21  1  0  0  0
 19 22  1  0  0  0
 19 42  1  0  0  0
 20 25  2  0  0  0
 20 43  1  0  0  0
 21 24  1  0  0  0
 21 44  1  0  0  0
 21 45  1  0  0  0
 22 24  1  0  0  0
 22 46  1  0  0  0
 22 47  1  0  0  0
 23 25  1  0  0  0
 24 48  1  0  0  0
 24 49  1  0  0  0
 25 51  1  0  0  0
 53 54  1  0  0  0
M  CHG  1  53   1
M  END
> <LID>
L000735

> <PC_CID>
5311304

> <Names>
Nalbuphine

> <CAS_Numbers>
20594-83-6

$$$$
5484728
                    3D
 Structure written by MMmdl.
 58 65  0  0  1  0            999 V2000
   -0.9123   -1.9128   -1.5501 O   0  0  0  0  0  0
    0.6553    2.2501   -0.7333 O   0  0  0  0  0  0
   -1.1158   -4.5780   -0.2849 O   0  0  0  0  0  0
   -3.2216   -0.0085   -1.4366 N   0  0  0  0  0  0
    0.5715   -0.1980   -0.7785 C   0  0  1  0  0  0
    0.5804    1.0939    0.0896 C   0  0  1  0  0  0
    1.8780    1.0295    0.9422 C   0  0  1  0  0  0
   -0.7265   -0.4868   -1.5982 C   0  0  2  0  0  0
    1.8189   -0.2182   -1.6994 C   0  0  0  0  0  0
    0.5833   -1.3958    0.1284 C   0  0  0  0  0  0
   -0.7139    1.2939    0.9302 C   0  0  0  0  0  0
    1.9168   -0.2219    1.8737 C   0  0  0  0  0  0
    3.1363   -0.0563   -0.9192 C   0  0  0  0  0  0
    1.2716   -1.5068    1.3480 C   0  0  0  0  0  0
   -1.9298    0.1364   -0.9635 C   0  0  0  0  0  0
   -1.9443    0.9263    0.1538 C   0  0  0  0  0  0
    4.3480    1.3737    0.7153 C   0  0  0  0  0  0
   -0.2472   -2.3454   -0.4379 C   0  0  0  0  0  0
    5.3685    1.9916   -0.2225 C   0  0  0  0  0  0
    6.7940    2.1873    0.2418 C   0  0  0  0  0  0
    6.4853    1.1668   -0.8234 C   0  0  0  0  0  0
   -3.3160    1.2867    0.3885 C   0  0  0  0  0  0
    1.1674   -2.7542    1.9992 C   0  0  0  0  0  0
   -0.3289   -3.5872    0.2237 C   0  0  0  0  0  0
   -4.1089    0.6823   -0.6333 C   0  0  0  0  0  0
    0.3902   -3.7929    1.4276 C   0  0  0  0  0  0
   -3.9916    2.0642    1.3587 C   0  0  0  0  0  0
   -5.5052    0.8441   -0.6863 C   0  0  0  0  0  0
   -5.3908    2.2319    1.3131 C   0  0  0  0  0  0
   -6.1477    1.6236    0.2931 C   0  0  0  0  0  0
    1.9198    1.9218    1.5689 H   0  0  0  0  0  0
   -0.6392   -0.1411   -2.6289 H   0  0  0  0  0  0
    1.7438    0.5818   -2.4370 H   0  0  0  0  0  0
    1.8514   -1.1445   -2.2748 H   0  0  0  0  0  0
   -0.7801    2.3174    1.3025 H   0  0  0  0  0  0
   -0.6824    0.6664    1.8201 H   0  0  0  0  0  0
    1.3788    0.0241    2.7896 H   0  0  0  0  0  0
    2.9308   -0.4483    2.2005 H   0  0  0  0  0  0
    3.3807   -0.9728   -0.3814 H   0  0  0  0  0  0
    3.9471    0.1014   -1.6303 H   0  0  0  0  0  0
    4.7587    0.4708    1.1689 H   0  0  0  0  0  0
    4.1801    2.0861    1.5238 H   0  0  0  0  0  0
    4.9724    2.7985   -0.8367 H   0  0  0  0  0  0
   -0.1612    2.3366   -1.2035 H   0  0  0  0  0  0
    7.0637    1.8151    1.2284 H   0  0  0  0  0  0
    7.3032    3.0980   -0.0674 H   0  0  0  0  0  0
    6.7857    1.3973   -1.8436 H   0  0  0  0  0  0
    6.5496    0.1165   -0.5456 H   0  0  0  0  0  0
   -3.4549   -0.5570   -2.2518 H   0  0  0  0  0  0
    1.6597   -2.9113    2.9477 H   0  0  0  0  0  0
    0.3157   -4.7421    1.9378 H   0  0  0  0  0  0
   -3.4254    2.5368    2.1476 H   0  0  0  0  0  0
   -6.0798    0.3747   -1.4710 H   0  0  0  0  0  0
   -1.5553   -4.3176   -1.0802 H   0  0  0  0  0  0
   -5.8853    2.8298    2.0647 H   0  0  0  0  0  0
   -7.2195    1.7551    0.2630 H   0  0  0  0  0  0
    3.0628    1.0868    0.0289 N   0  3  2  0  0  0
    2.8787    1.9003   -0.5427 H   0  0  0  0  0  0
  1  8  1  0  0  0
  1 18  1  0  0  0
  2  6  1  0  0  0
  2 44  1  0  0  0
  3 24  1  0  0  0
  3 54  1  0  0  0
  4 15  1  0  0  0
  4 25  1  0  0  0
  4 49  1  0  0  0
  5  6  1  0  0  0
  5  8  1  0  0  0
  5  9  1  0  0  0
  5 10  1  0  0  0
  6  7  1  0  0  0
  6 11  1  0  0  0
  7 12  1  0  0  0
  7 31  1  0  0  0
  7 57  1  0  0  0
  8 15  1  0  0  0
  8 32  1  0  0  0
  9 13  1  0  0  0
  9 33  1  0  0  0
  9 34  1  0  0  0
 10 14  2  0  0  0
 10 18  1  0  0  0
 11 16  1  0  0  0
 11 35  1  0  0  0
 11 36  1  0  0  0
 12 14  1  0  0  0
 12 37  1  0  0  0
 12 38  1  0  0  0
 13 39  1  0  0  0
 13 40  1  0  0  0
 13 57  1  0  0  0
 14 23  1  0  0  0
 15 16  2  0  0  0
 16 22  1  0  0  0
 17 19  1  0  0  0
 17 41  1  0  0  0
 17 42  1  0  0  0
 17 57  1  0  0  0
 18 24  2  0  0  0
 19 20  1  0  0  0
 19 21  1  0  0  0
 19 43  1  0  0  0
 20 21  1  0  0  0
 20 45  1  0  0  0
 20 46  1  0  0  0
 21 47  1  0  0  0
 21 48  1  0  0  0
 22 25  1  0  0  0
 22 27  2  0  0  0
 23 26  2  0  0  0
 23 50  1  0  0  0
 24 26  1  0  0  0
 25 28  2  0  0  0
 26 51  1  0  0  0
 27 29  1  0  0  0
 27 52  1  0  0  0
 28 30  1  0  0  0
 28 53  1  0  0  0
 29 30  2  0  0  0
 29 55  1  0  0  0
 30 56  1  0  0  0
 57 58  1  0  0  0
M  CHG  1  57   1
M  END
> <LID>
L000430

> <PC_CID>
5484728

> <Names>
naltrindole

> <CAS_Numbers>
111555-53-4

$$$$
5462348
                    3D
 Structure written by MMmdl.
 43 46  0  0  1  0            999 V2000
    2.4949    6.2191   -0.6187 O   0  0  0  0  0  0
    7.1800    7.0831    0.7754 C   0  0  2  0  0  0
    8.5049    7.6837    0.2290 C   0  0  2  0  0  0
    8.2341    9.1528   -0.1672 C   0  0  1  0  0  0
    6.9100    7.7819    2.1385 C   0  0  0  0  0  0
    7.4129    5.5617    0.9594 C   0  0  0  0  0  0
    9.2257    6.8167   -0.8425 C   0  0  0  0  0  0
    5.9758    7.3752   -0.1526 C   0  0  0  0  0  0
    7.3045    9.1858   -1.3887 C   0  0  0  0  0  0
    7.5203    9.2033    2.2541 C   0  0  0  0  0  0
    7.6845    4.8230   -0.3696 C   0  0  0  0  0  0
    8.3472    5.7080   -1.4453 C   0  0  0  0  0  0
    6.0412    8.3704   -1.1665 C   0  0  0  0  0  0
    4.7626    6.6672    0.0218 C   0  0  0  0  0  0
    8.0935   11.2961    1.0814 C   0  0  0  0  0  0
    4.9255    8.6163   -1.9932 C   0  0  0  0  0  0
    3.6512    6.9189   -0.8042 C   0  0  0  0  0  0
    3.7336    7.8918   -1.8161 C   0  0  0  0  0  0
    9.2301    7.6987    1.0448 H   0  0  0  0  0  0
    9.1842    9.6258   -0.4217 H   0  0  0  0  0  0
    5.8396    7.8129    2.3463 H   0  0  0  0  0  0
    7.3343    7.1891    2.9499 H   0  0  0  0  0  0
    8.2786    5.4213    1.6087 H   0  0  0  0  0  0
    6.5874    5.0844    1.4868 H   0  0  0  0  0  0
    9.6429    7.4399   -1.6338 H   0  0  0  0  0  0
   10.0872    6.3351   -0.3774 H   0  0  0  0  0  0
    7.0372   10.2151   -1.6317 H   0  0  0  0  0  0
    7.8129    8.7913   -2.2686 H   0  0  0  0  0  0
    8.5297    9.1420    2.6644 H   0  0  0  0  0  0
    6.9412    9.7893    2.9689 H   0  0  0  0  0  0
    8.3139    3.9562   -0.1653 H   0  0  0  0  0  0
    6.7515    4.4251   -0.7704 H   0  0  0  0  0  0
    7.5754    6.1629   -2.0658 H   0  0  0  0  0  0
    8.9348    5.0882   -2.1232 H   0  0  0  0  0  0
    4.6692    5.9232    0.7982 H   0  0  0  0  0  0
    7.5079   11.8566    1.8110 H   0  0  0  0  0  0
    9.1349   11.2965    1.4060 H   0  0  0  0  0  0
    8.0309   11.8247    0.1296 H   0  0  0  0  0  0
    4.9803    9.3663   -2.7688 H   0  0  0  0  0  0
    2.8852    8.0899   -2.4548 H   0  0  0  0  0  0
    1.8121    6.4584   -1.2265 H   0  0  0  0  0  0
    7.5804    9.9146    0.9475 N   0  3  1  0  0  0
    6.6144   10.0025    0.6638 H   0  0  0  0  0  0
  1 17  1  0  0  0
  1 41  1  0  0  0
  2  3  1  0  0  0
  2  5  1  0  0  0
  2  6  1  0  0  0
  2  8  1  0  0  0
  3  4  1  0  0  0
  3  7  1  0  0  0
  3 19  1  0  0  0
  4  9  1  0  0  0
  4 20  1  0  0  0
  4 42  1  0  0  0
  5 10  1  0  0  0
  5 21  1  0  0  0
  5 22  1  0  0  0
  6 11  1  0  0  0
  6 23  1  0  0  0
  6 24  1  0  0  0
  7 12  1  0  0  0
  7 25  1  0  0  0
  7 26  1  0  0  0
  8 13  2  0  0  0
  8 14  1  0  0  0
  9 13  1  0  0  0
  9 27  1  0  0  0
  9 28  1  0  0  0
 10 29  1  0  0  0
 10 30  1  0  0  0
 10 42  1  0  0  0
 11 12  1  0  0  0
 11 31  1  0  0  0
 11 32  1  0  0  0
 12 33  1  0  0  0
 12 34  1  0  0  0
 13 16  1  0  0  0
 14 17  2  0  0  0
 14 35  1  0  0  0
 15 36  1  0  0  0
 15 37  1  0  0  0
 15 38  1  0  0  0
 15 42  1  0  0  0
 16 18  2  0  0  0
 16 39  1  0  0  0
 17 18  1  0  0  0
 18 40  1  0  0  0
 42 43  1  0  0  0
M  CHG  1  42   1
M  END
> <LID>
L001335

> <PC_CID>
5462348

> <Names>
Levorphanol

> <CAS_Numbers>
5985-38-6;5985-51-3;6700-40-9

$$$$
9669
                    3D
 Structure written by MMmdl.
 49 51  0  0  1  0            999 V2000
   -4.6878    1.9174    0.9673 O   0  0  0  0  0  0
   -1.1086   -1.4642    0.2484 C   0  0  1  0  0  0
   -0.3122   -2.0147   -0.9750 C   0  0  1  0  0  0
    0.6773   -0.9345   -1.4505 C   0  0  1  0  0  0
   -0.0966   -1.1386    1.3711 C   0  0  0  0  0  0
   -0.1095    0.2705   -2.0095 C   0  0  0  0  0  0
   -1.8295   -0.1541   -0.1426 C   0  0  0  0  0  0
    0.9872   -0.1449    0.9100 C   0  0  0  0  0  0
   -1.3364    0.6619   -1.1987 C   0  0  0  0  0  0
   -2.1127   -2.5345    0.7459 C   0  0  0  0  0  0
    0.3977   -3.3757   -0.7864 C   0  0  0  0  0  0
    2.7505    0.2915   -0.7846 C   0  0  0  0  0  0
   -2.9583    0.2997    0.5846 C   0  0  0  0  0  0
   -1.9859    1.8701   -1.5269 C   0  0  0  0  0  0
   -3.5999    1.5078    0.2531 C   0  0  0  0  0  0
   -3.1168    2.2926   -0.8077 C   0  0  0  0  0  0
    3.9627    0.1146    0.1153 C   0  0  0  0  0  0
    4.4582    0.9910    1.0131 C   0  0  0  0  0  0
    5.7009    0.6672    1.8193 C   0  0  0  0  0  0
    3.8625    2.3561    1.3163 C   0  0  0  0  0  0
   -1.0287   -2.1777   -1.7826 H   0  0  0  0  0  0
    1.2713   -1.3411   -2.2706 H   0  0  0  0  0  0
    0.3797   -2.0513    1.7291 H   0  0  0  0  0  0
   -0.6173   -0.7248    2.2358 H   0  0  0  0  0  0
   -0.4717    0.0117   -3.0053 H   0  0  0  0  0  0
    0.5329    1.1394   -2.1497 H   0  0  0  0  0  0
    0.5683    0.8534    0.7797 H   0  0  0  0  0  0
    1.7346   -0.0541    1.6984 H   0  0  0  0  0  0
   -1.6190   -3.4679    1.0117 H   0  0  0  0  0  0
   -2.6370   -2.2302    1.6502 H   0  0  0  0  0  0
   -2.8601   -2.7612   -0.0152 H   0  0  0  0  0  0
    0.9535   -3.6461   -1.6846 H   0  0  0  0  0  0
    1.1082   -3.3694    0.0393 H   0  0  0  0  0  0
   -0.3106   -4.1852   -0.6141 H   0  0  0  0  0  0
    3.0689    0.0206   -1.7919 H   0  0  0  0  0  0
    2.4217    1.3272   -0.8421 H   0  0  0  0  0  0
   -3.3498   -0.2603    1.4185 H   0  0  0  0  0  0
   -1.6135    2.4820   -2.3356 H   0  0  0  0  0  0
   -3.6035    3.2211   -1.0683 H   0  0  0  0  0  0
    4.4664   -0.8345   -0.0008 H   0  0  0  0  0  0
   -5.0459    2.7376    0.6643 H   0  0  0  0  0  0
    6.4774    1.4089    1.6303 H   0  0  0  0  0  0
    5.4732    0.6742    2.8855 H   0  0  0  0  0  0
    6.1031   -0.3145    1.5666 H   0  0  0  0  0  0
    4.5413    3.1417    0.9838 H   0  0  0  0  0  0
    2.8944    2.5255    0.8504 H   0  0  0  0  0  0
    3.7223    2.4671    2.3919 H   0  0  0  0  0  0
    1.6364   -0.5901   -0.3532 N   0  3  2  0  0  0
    2.0754   -1.4711   -0.1271 H   0  0  0  0  0  0
  1 15  1  0  0  0
  1 41  1  0  0  0
  2  3  1  0  0  0
  2  5  1  0  0  0
  2  7  1  0  0  0
  2 10  1  0  0  0
  3  4  1  0  0  0
  3 11  1  0  0  0
  3 21  1  0  0  0
  4  6  1  0  0  0
  4 22  1  0  0  0
  4 48  1  0  0  0
  5  8  1  0  0  0
  5 23  1  0  0  0
  5 24  1  0  0  0
  6  9  1  0  0  0
  6 25  1  0  0  0
  6 26  1  0  0  0
  7  9  2  0  0  0
  7 13  1  0  0  0
  8 27  1  0  0  0
  8 28  1  0  0  0
  8 48  1  0  0  0
  9 14  1  0  0  0
 10 29  1  0  0  0
 10 30  1  0  0  0
 10 31  1  0  0  0
 11 32  1  0  0  0
 11 33  1  0  0  0
 11 34  1  0  0  0
 12 17  1  0  0  0
 12 35  1  0  0  0
 12 36  1  0  0  0
 12 48  1  0  0  0
 13 15  2  0  0  0
 13 37  1  0  0  0
 14 16  2  0  0  0
 14 38  1  0  0  0
 15 16  1  0  0  0
 16 39  1  0  0  0
 17 18  2  0  0  0
 17 40  1  0  0  0
 18 19  1  0  0  0
 18 20  1  0  0  0
 19 42  1  0  0  0
 19 43  1  0  0  0
 19 44  1  0  0  0
 20 45  1  0  0  0
 20 46  1  0  0  0
 20 47  1  0  0  0
 48 49  1  0  0  0
M  CHG  1  48   1
M  END
> <LID>
L001017

> <PC_CID>
9669

> <Names>
KF 1820;Pentazocine

> <CAS_Numbers>
17146-95-1;359-83-1;64024-15-3

$$$$
115077
                    3D
 Structure written by MMmdl.
 66 69  0  0  1  0            999 V2000
   -0.2887    3.2930   -2.2701 O   0  0  0  0  0  0
   -1.9157   -1.4218    3.5819 O   0  0  0  0  0  0
    1.6970   -1.6337    0.9643 C   0  0  2  0  0  0
    2.0920   -0.2611    0.2820 C   0  0  1  0  0  0
    1.4899   -2.6571   -0.1960 C   0  0  1  0  0  0
    3.4066   -0.4592   -0.5208 C   0  0  0  0  0  0
    0.4638   -1.5499    1.9412 C   0  0  0  0  0  0
    0.3346   -2.2627   -1.1440 C   0  0  0  0  0  0
    1.0247    0.1852   -0.7482 C   0  0  0  0  0  0
    3.3210   -1.6076   -1.5469 C   0  0  0  0  0  0
    2.8208   -2.2087    1.8868 C   0  0  0  0  0  0
    2.3514    0.8294    1.3575 C   0  0  0  0  0  0
    0.2167   -0.7717   -1.4235 C   0  0  0  0  0  0
   -0.8019   -0.7600    1.5372 C   0  0  0  0  0  0
    2.8143   -4.0113   -1.8457 C   0  0  0  0  0  0
    0.8442    1.5556   -1.0651 C   0  0  0  0  0  0
   -0.7536   -0.3529   -2.3575 C   0  0  0  0  0  0
   -1.8434   -0.6241    2.6486 C   0  0  0  0  0  0
   -0.1273    1.9661   -1.9971 C   0  0  0  0  0  0
   -0.9309    1.0114   -2.6424 C   0  0  0  0  0  0
   -2.7948    0.5665    2.5441 C   0  0  0  0  0  0
   -4.2679    1.8523    0.8829 C   0  0  0  0  0  0
   -3.7144    0.4827    1.3103 C   0  0  0  0  0  0
   -5.2822    1.7645   -0.2606 C   0  0  0  0  0  0
   -3.1941    2.8260    0.3642 C   0  0  0  0  0  0
   -5.2971    3.1724   -0.8501 C   0  0  0  0  0  0
   -3.8430    3.6432   -0.7635 C   0  0  0  0  0  0
    1.2418   -3.6279    0.2362 H   0  0  0  0  0  0
    4.2455   -0.6357    0.1516 H   0  0  0  0  0  0
    3.6644    0.4621   -1.0453 H   0  0  0  0  0  0
    0.8020   -1.1082    2.8802 H   0  0  0  0  0  0
    0.1626   -2.5651    2.2043 H   0  0  0  0  0  0
    0.3952   -2.7924   -2.0932 H   0  0  0  0  0  0
   -0.6065   -2.5985   -0.7107 H   0  0  0  0  0  0
    2.7087   -1.3198   -2.4020 H   0  0  0  0  0  0
    4.3168   -1.8064   -1.9449 H   0  0  0  0  0  0
    3.7816   -2.3553    1.3978 H   0  0  0  0  0  0
    3.0115   -1.5814    2.7568 H   0  0  0  0  0  0
    2.5329   -3.1851    2.2789 H   0  0  0  0  0  0
    3.0702    0.5059    2.1078 H   0  0  0  0  0  0
    2.7810    1.7351    0.9315 H   0  0  0  0  0  0
    1.4407    1.1149    1.8831 H   0  0  0  0  0  0
   -1.3042   -1.2286    0.6965 H   0  0  0  0  0  0
   -0.5417    0.2520    1.2343 H   0  0  0  0  0  0
    2.4296   -4.9056   -1.3544 H   0  0  0  0  0  0
    2.2335   -3.8370   -2.7512 H   0  0  0  0  0  0
    3.8407   -4.2201   -2.1490 H   0  0  0  0  0  0
    1.4434    2.3229   -0.6024 H   0  0  0  0  0  0
   -1.3740   -1.0830   -2.8567 H   0  0  0  0  0  0
   -1.6812    1.3190   -3.3560 H   0  0  0  0  0  0
   -2.1790    1.4642    2.4924 H   0  0  0  0  0  0
   -3.3885    0.6488    3.4549 H   0  0  0  0  0  0
   -4.7685    2.3163    1.7345 H   0  0  0  0  0  0
   -4.5436   -0.1888    1.5365 H   0  0  0  0  0  0
   -3.1955    0.0395    0.4595 H   0  0  0  0  0  0
   -6.2678    1.4427    0.0772 H   0  0  0  0  0  0
   -4.9406    1.0558   -1.0166 H   0  0  0  0  0  0
   -2.3330    2.2841   -0.0290 H   0  0  0  0  0  0
   -2.8284    3.4690    1.1655 H   0  0  0  0  0  0
   -5.9287    3.8174   -0.2376 H   0  0  0  0  0  0
   -5.6863    3.1974   -1.8684 H   0  0  0  0  0  0
   -3.3292    3.4398   -1.7040 H   0  0  0  0  0  0
   -3.7786    4.7166   -0.5826 H   0  0  0  0  0  0
   -0.9599    3.4631   -2.9130 H   0  0  0  0  0  0
    2.7821   -2.8463   -0.9309 N   0  3  2  0  0  0
    3.4429   -3.0804   -0.2037 H   0  0  0  0  0  0
  1 19  1  0  0  0
  1 64  1  0  0  0
  2 18  2  0  0  0
  3  4  1  0  0  0
  3  5  1  0  0  0
  3  7  1  0  0  0
  3 11  1  0  0  0
  4  6  1  0  0  0
  4  9  1  0  0  0
  4 12  1  0  0  0
  5  8  1  0  0  0
  5 28  1  0  0  0
  5 65  1  0  0  0
  6 10  1  0  0  0
  6 29  1  0  0  0
  6 30  1  0  0  0
  7 14  1  0  0  0
  7 31  1  0  0  0
  7 32  1  0  0  0
  8 13  1  0  0  0
  8 33  1  0  0  0
  8 34  1  0  0  0
  9 13  2  0  0  0
  9 16  1  0  0  0
 10 35  1  0  0  0
 10 36  1  0  0  0
 10 65  1  0  0  0
 11 37  1  0  0  0
 11 38  1  0  0  0
 11 39  1  0  0  0
 12 40  1  0  0  0
 12 41  1  0  0  0
 12 42  1  0  0  0
 13 17  1  0  0  0
 14 18  1  0  0  0
 14 43  1  0  0  0
 14 44  1  0  0  0
 15 45  1  0  0  0
 15 46  1  0  0  0
 15 47  1  0  0  0
 15 65  1  0  0  0
 16 19  2  0  0  0
 16 48  1  0  0  0
 17 20  2  0  0  0
 17 49  1  0  0  0
 18 21  1  0  0  0
 19 20  1  0  0  0
 20 50  1  0  0  0
 21 23  1  0  0  0
 21 51  1  0  0  0
 21 52  1  0  0  0
 22 23  1  0  0  0
 22 24  1  0  0  0
 22 25  1  0  0  0
 22 53  1  0  0  0
 23 54  1  0  0  0
 23 55  1  0  0  0
 24 26  1  0  0  0
 24 56  1  0  0  0
 24 57  1  0  0  0
 25 27  1  0  0  0
 25 58  1  0  0  0
 25 59  1  0  0  0
 26 27  1  0  0  0
 26 60  1  0  0  0
 26 61  1  0  0  0
 27 62  1  0  0  0
 27 63  1  0  0  0
 65 66  1  0  0  0
M  CHG  1  65   1
M  END
> <LID>
L024019

> <PC_CID>
115077

> <Names>
quadazocine

> <CAS_Numbers>
69924-29-4

$$$$
