1223
                    3D
 Structure written by MMmdl.
 53 56  0  0  1  0            999 V2000
   -4.5601    0.5127   -0.0672 O   0  0  0  0  0  0
    4.9311   -1.6221   -1.0886 O   0  0  0  0  0  0
    0.0826    1.6811    0.9883 C   0  0  0  0  0  0
    0.9426    1.2640   -0.2739 C   0  0  2  0  0  0
   -0.7550    0.4407    1.4094 C   0  0  2  0  0  0
   -0.0465    0.8397   -1.3982 C   0  0  0  0  0  0
   -1.0201   -0.2740   -0.9698 C   0  0  0  0  0  0
   -3.9952   -0.7818   -0.1118 C   0  0  0  0  0  0
    0.1417   -0.7298    1.8675 C   0  0  0  0  0  0
    1.8090    0.0165    0.0538 C   0  0  0  0  0  0
   -2.7296   -0.9321    0.7115 C   0  0  0  0  0  0
    1.8414    2.4700   -0.7358 C   0  0  0  0  0  0
   -0.9114    2.8583    0.7474 C   0  0  0  0  0  0
    0.9863    2.1396    2.1661 C   0  0  0  0  0  0
   -5.0717   -1.8417   -0.1237 C   0  0  0  0  0  0
   -4.2938   -1.5380   -1.3848 C   0  0  0  0  0  0
    1.4011   -0.9257    1.0403 C   0  0  0  0  0  0
    3.0082   -0.2476   -0.6559 C   0  0  0  0  0  0
    2.0692    2.6652   -2.2498 C   0  0  0  0  0  0
    2.1779   -2.0740    1.2998 C   0  0  0  0  0  0
    3.7796   -1.3954   -0.3926 C   0  0  0  0  0  0
    3.3640   -2.3115    0.5866 C   0  0  0  0  0  0
   -1.3785    0.7199    2.2605 H   0  0  0  0  0  0
    0.5024    0.4811   -2.2695 H   0  0  0  0  0  0
   -0.6175    1.6970   -1.7528 H   0  0  0  0  0  0
   -1.7643   -0.4043   -1.7550 H   0  0  0  0  0  0
   -0.5037   -1.2305   -0.8853 H   0  0  0  0  0  0
   -0.4141   -1.6661    1.9105 H   0  0  0  0  0  0
    0.4660   -0.5439    2.8920 H   0  0  0  0  0  0
   -3.0006   -0.7884    1.7583 H   0  0  0  0  0  0
   -2.3478   -1.9499    0.6201 H   0  0  0  0  0  0
    1.4142    3.4143   -0.4128 H   0  0  0  0  0  0
    2.8005    2.4367   -0.2175 H   0  0  0  0  0  0
   -0.4158    3.8082    0.5559 H   0  0  0  0  0  0
   -1.6041    2.6894   -0.0751 H   0  0  0  0  0  0
   -1.5277    3.0237    1.6320 H   0  0  0  0  0  0
    1.4798    3.0874    1.9511 H   0  0  0  0  0  0
    0.4022    2.2891    3.0747 H   0  0  0  0  0  0
    1.7751    1.4280    2.4067 H   0  0  0  0  0  0
   -6.1126   -1.5243   -0.0901 H   0  0  0  0  0  0
   -4.8595   -2.7853    0.3753 H   0  0  0  0  0  0
   -3.5697   -2.2805   -1.7145 H   0  0  0  0  0  0
   -4.8116   -1.0084   -2.1825 H   0  0  0  0  0  0
    3.3654    0.4246   -1.4160 H   0  0  0  0  0  0
    2.7901    3.4644   -2.4229 H   0  0  0  0  0  0
    2.4466    1.7763   -2.7510 H   0  0  0  0  0  0
    1.1480    2.9578   -2.7538 H   0  0  0  0  0  0
    1.8647   -2.7799    2.0552 H   0  0  0  0  0  0
   -5.1326    0.5691    0.6835 H   0  0  0  0  0  0
    3.9526   -3.1935    0.7928 H   0  0  0  0  0  0
    5.1260   -0.9464   -1.7196 H   0  0  0  0  0  0
   -1.6950    0.0553    0.3111 N   0  3  1  0  0  0
   -2.2216    0.8981    0.1258 H   0  0  0  0  0  0
  1  8  1  0  0  0
  1 49  1  0  0  0
  2 21  1  0  0  0
  2 51  1  0  0  0
  3  4  1  0  0  0
  3  5  1  0  0  0
  3 13  1  0  0  0
  3 14  1  0  0  0
  4  6  1  0  0  0
  4 10  1  0  0  0
  4 12  1  0  0  0
  5  9  1  0  0  0
  5 23  1  0  0  0
  5 52  1  0  0  0
  6  7  1  0  0  0
  6 24  1  0  0  0
  6 25  1  0  0  0
  7 26  1  0  0  0
  7 27  1  0  0  0
  7 52  1  0  0  0
  8 11  1  0  0  0
  8 15  1  0  0  0
  8 16  1  0  0  0
  9 17  1  0  0  0
  9 28  1  0  0  0
  9 29  1  0  0  0
 10 17  2  0  0  0
 10 18  1  0  0  0
 11 30  1  0  0  0
 11 31  1  0  0  0
 11 52  1  0  0  0
 12 19  1  0  0  0
 12 32  1  0  0  0
 12 33  1  0  0  0
 13 34  1  0  0  0
 13 35  1  0  0  0
 13 36  1  0  0  0
 14 37  1  0  0  0
 14 38  1  0  0  0
 14 39  1  0  0  0
 15 16  1  0  0  0
 15 40  1  0  0  0
 15 41  1  0  0  0
 16 42  1  0  0  0
 16 43  1  0  0  0
 17 20  1  0  0  0
 18 21  2  0  0  0
 18 44  1  0  0  0
 19 45  1  0  0  0
 19 46  1  0  0  0
 19 47  1  0  0  0
 20 22  2  0  0  0
 20 48  1  0  0  0
 21 22  1  0  0  0
 22 50  1  0  0  0
 52 53  1  0  0  0
M  CHG  1  52   1
M  END
> <LID>
L000925

> <PC_CID>
1223

> <Names>
bremazocine

> <CAS_Numbers>
71990-00-6

$$$$
5497186
                    3D
 Structure written by MMmdl.
 58 65  0  0  1  0            999 V2000
   -0.8874   -1.9033   -1.5510 O   0  0  0  0  0  0
    0.6898    2.2547   -0.7281 O   0  0  0  0  0  0
   -1.1010   -4.5689   -0.2880 O   0  0  0  0  0  0
   -3.1917    0.0072   -1.4413 N   0  0  0  0  0  0
    0.5993   -0.1931   -0.7750 C   0  0  1  0  0  0
    0.6099    1.0982    0.0939 C   0  0  1  0  0  0
    1.9055    1.0296    0.9493 C   0  0  1  0  0  0
   -0.6976   -0.4778   -1.5978 C   0  0  2  0  0  0
    1.8487   -0.2161   -1.6933 C   0  0  0  0  0  0
    0.6059   -1.3915    0.1310 C   0  0  0  0  0  0
   -0.6857    1.3012    0.9319 C   0  0  0  0  0  0
    1.9388   -0.2224    1.8801 C   0  0  0  0  0  0
    3.1648   -0.0584   -0.9101 C   0  0  0  0  0  0
    1.2913   -1.5053    1.3521 C   0  0  0  0  0  0
   -1.9006    0.1482   -0.9652 C   0  0  0  0  0  0
   -1.9154    0.9375    0.1525 C   0  0  0  0  0  0
    4.3769    1.3672    0.7280 C   0  0  0  0  0  0
   -0.2259   -2.3386   -0.4377 C   0  0  0  0  0  0
    5.4012    1.9829   -0.2071 C   0  0  0  0  0  0
    6.8262    2.1745    0.2604 C   0  0  0  0  0  0
    6.5170    1.1555   -0.8062 C   0  0  0  0  0  0
   -3.2866    1.3014    0.3845 C   0  0  0  0  0  0
    1.1822   -2.7528    2.0022 C   0  0  0  0  0  0
   -0.3125   -3.5806    0.2229 C   0  0  0  0  0  0
   -4.0789    0.6998   -0.6395 C   0  0  0  0  0  0
    0.4034   -3.7890    1.4282 C   0  0  0  0  0  0
   -3.9622    2.0801    1.3537 C   0  0  0  0  0  0
   -5.4746    0.8656   -0.6954 C   0  0  0  0  0  0
   -5.3608    2.2517    1.3052 C   0  0  0  0  0  0
   -6.1172    1.6461    0.2831 C   0  0  0  0  0  0
    1.9483    1.9214    1.5767 H   0  0  0  0  0  0
   -0.6071   -0.1317   -2.6280 H   0  0  0  0  0  0
    1.7774    0.5845   -2.4305 H   0  0  0  0  0  0
    1.8800   -1.1421   -2.2692 H   0  0  0  0  0  0
   -0.7499    2.3246    1.3047 H   0  0  0  0  0  0
   -0.6578    0.6729    1.8214 H   0  0  0  0  0  0
    1.3995    0.0244    2.7949 H   0  0  0  0  0  0
    2.9515   -0.4519    2.2089 H   0  0  0  0  0  0
    3.4056   -0.9759   -0.3724 H   0  0  0  0  0  0
    3.9777    0.0976   -1.6193 H   0  0  0  0  0  0
    4.7841    0.4629    1.1819 H   0  0  0  0  0  0
    4.2092    2.0796    1.5366 H   0  0  0  0  0  0
    5.0086    2.7913   -0.8217 H   0  0  0  0  0  0
   -0.1255    2.3437   -1.2000 H   0  0  0  0  0  0
    7.0927    1.8009    1.2473 H   0  0  0  0  0  0
    7.3385    3.0840   -0.0471 H   0  0  0  0  0  0
    6.8203    1.3859   -1.8256 H   0  0  0  0  0  0
    6.5778    0.1048   -0.5290 H   0  0  0  0  0  0
   -3.4248   -0.5401   -2.2574 H   0  0  0  0  0  0
    1.6721   -2.9119    2.9517 H   0  0  0  0  0  0
    0.3253   -4.7383    1.9377 H   0  0  0  0  0  0
   -3.3964    2.5506    2.1441 H   0  0  0  0  0  0
   -6.0488    0.3983   -1.4816 H   0  0  0  0  0  0
   -1.5380   -4.3067   -1.0841 H   0  0  0  0  0  0
   -5.8553    2.8505    2.0561 H   0  0  0  0  0  0
   -7.1885    1.7806    0.2508 H   0  0  0  0  0  0
    3.0924    1.0843    0.0386 N   0  3  2  0  0  0
    2.9118    1.8987   -0.5329 H   0  0  0  0  0  0
  1  8  1  0  0  0
  1 18  1  0  0  0
  2  6  1  0  0  0
  2 44  1  0  0  0
  3 24  1  0  0  0
  3 54  1  0  0  0
  4 15  1  0  0  0
  4 25  1  0  0  0
  4 49  1  0  0  0
  5  6  1  0  0  0
  5  8  1  0  0  0
  5  9  1  0  0  0
  5 10  1  0  0  0
  6  7  1  0  0  0
  6 11  1  0  0  0
  7 12  1  0  0  0
  7 31  1  0  0  0
  7 57  1  0  0  0
  8 15  1  0  0  0
  8 32  1  0  0  0
  9 13  1  0  0  0
  9 33  1  0  0  0
  9 34  1  0  0  0
 10 14  2  0  0  0
 10 18  1  0  0  0
 11 16  1  0  0  0
 11 35  1  0  0  0
 11 36  1  0  0  0
 12 14  1  0  0  0
 12 37  1  0  0  0
 12 38  1  0  0  0
 13 39  1  0  0  0
 13 40  1  0  0  0
 13 57  1  0  0  0
 14 23  1  0  0  0
 15 16  2  0  0  0
 16 22  1  0  0  0
 17 19  1  0  0  0
 17 41  1  0  0  0
 17 42  1  0  0  0
 17 57  1  0  0  0
 18 24  2  0  0  0
 19 20  1  0  0  0
 19 21  1  0  0  0
 19 43  1  0  0  0
 20 21  1  0  0  0
 20 45  1  0  0  0
 20 46  1  0  0  0
 21 47  1  0  0  0
 21 48  1  0  0  0
 22 25  1  0  0  0
 22 27  2  0  0  0
 23 26  2  0  0  0
 23 50  1  0  0  0
 24 26  1  0  0  0
 25 28  2  0  0  0
 26 51  1  0  0  0
 27 29  1  0  0  0
 27 52  1  0  0  0
 28 30  1  0  0  0
 28 53  1  0  0  0
 29 30  2  0  0  0
 29 55  1  0  0  0
 30 56  1  0  0  0
 57 58  1  0  0  0
M  CHG  1  57   1
M  END
> <LID>
L024025

> <PC_CID>
5497186

> <Names>
naltrindole

> <CAS_Numbers>
111555-53-4

$$$$
127914
                    3D
 Structure written by MMmdl.
 53 55  0  0  1  0            999 V2000
    6.1389   -0.8689   -2.5888 Cl  0  0  0  0  0  0
    7.3061    0.9080   -0.2115 Cl  0  0  0  0  0  0
   -7.2808   -3.7719   -0.2287 S   0  0  0  0  0  0
    0.4313   -0.3969    1.6128 O   0  0  0  0  0  0
    0.1174   -0.2634   -0.6341 N   0  0  0  0  0  0
   -5.0005   -2.2040   -0.7244 N   0  0  0  0  0  0
   -1.2899    4.3549    0.6681 C   0  0  0  0  0  0
   -2.0825    3.5037   -1.4192 C   0  0  0  0  0  0
   -0.5321    2.0906   -0.0504 C   0  0  0  0  0  0
   -1.7414    5.5289   -0.2102 C   0  0  0  0  0  0
   -2.6714    4.8989   -1.2408 C   0  0  0  0  0  0
   -1.0031    0.7036   -0.5649 C   0  0  2  0  0  0
   -2.2369    0.1255    0.1378 C   0  0  0  0  0  0
    0.7406   -0.7473    0.4739 C   0  0  0  0  0  0
    0.5226   -0.6683   -1.9875 C   0  0  0  0  0  0
   -3.0669   -0.7669   -0.5753 C   0  0  0  0  0  0
   -2.5628    0.4424    1.4770 C   0  0  0  0  0  0
    1.8790   -1.7755    0.3393 C   0  0  0  0  0  0
   -4.2123   -1.3308    0.0227 C   0  0  0  0  0  0
   -3.7039   -0.1157    2.0821 C   0  0  0  0  0  0
   -4.5282   -0.9975    1.3590 C   0  0  0  0  0  0
    3.2351   -1.0984    0.1946 C   0  0  0  0  0  0
    3.9897   -1.2661   -0.9861 C   0  0  0  0  0  0
    3.7626   -0.3199    1.2477 C   0  0  0  0  0  0
    5.2488   -0.6488   -1.1245 C   0  0  0  0  0  0
    5.0207    0.2975    1.1128 C   0  0  0  0  0  0
    5.7659    0.1376   -0.0717 C   0  0  0  0  0  0
   -6.0173   -2.8508   -0.5339 C   0  0  0  0  0  0
   -1.8311    4.3434    1.6147 H   0  0  0  0  0  0
   -0.2263    4.4376    0.8978 H   0  0  0  0  0  0
   -1.2402    3.5482   -2.1118 H   0  0  0  0  0  0
   -2.8106    2.7952   -1.8156 H   0  0  0  0  0  0
    0.3113    2.4439   -0.6459 H   0  0  0  0  0  0
   -0.1633    2.0124    0.9722 H   0  0  0  0  0  0
   -2.2227    6.3230    0.3615 H   0  0  0  0  0  0
   -0.8770    5.9617   -0.7160 H   0  0  0  0  0  0
   -2.7184    5.4630   -2.1729 H   0  0  0  0  0  0
   -3.6824    4.8284   -0.8367 H   0  0  0  0  0  0
   -1.3549    0.8850   -1.5797 H   0  0  0  0  0  0
    0.3095   -1.7253   -2.1506 H   0  0  0  0  0  0
    0.0169   -0.1205   -2.7820 H   0  0  0  0  0  0
    1.5875   -0.5008   -2.1425 H   0  0  0  0  0  0
   -2.8216   -1.0237   -1.5961 H   0  0  0  0  0  0
   -1.9403    1.1040    2.0598 H   0  0  0  0  0  0
    1.9017   -2.3884    1.2413 H   0  0  0  0  0  0
    1.6995   -2.4726   -0.4787 H   0  0  0  0  0  0
   -3.9456    0.1293    3.1060 H   0  0  0  0  0  0
   -5.3996   -1.4179    1.8397 H   0  0  0  0  0  0
    3.6038   -1.8699   -1.7945 H   0  0  0  0  0  0
    3.2029   -0.1927    2.1631 H   0  0  0  0  0  0
    5.4150    0.8944    1.9220 H   0  0  0  0  0  0
   -1.6097    3.1115   -0.0739 N   0  3  0  0  0  0
   -2.4065    2.7084    0.3994 H   0  0  0  0  0  0
  1 25  1  0  0  0
  2 27  1  0  0  0
  3 28  2  0  0  0
  4 14  2  0  0  0
  5 12  1  0  0  0
  5 14  1  0  0  0
  5 15  1  0  0  0
  6 19  1  0  0  0
  6 28  2  0  0  0
  7 10  1  0  0  0
  7 29  1  0  0  0
  7 30  1  0  0  0
  7 52  1  0  0  0
  8 11  1  0  0  0
  8 31  1  0  0  0
  8 32  1  0  0  0
  8 52  1  0  0  0
  9 12  1  0  0  0
  9 33  1  0  0  0
  9 34  1  0  0  0
  9 52  1  0  0  0
 10 11  1  0  0  0
 10 35  1  0  0  0
 10 36  1  0  0  0
 11 37  1  0  0  0
 11 38  1  0  0  0
 12 13  1  0  0  0
 12 39  1  0  0  0
 13 16  2  0  0  0
 13 17  1  0  0  0
 14 18  1  0  0  0
 15 40  1  0  0  0
 15 41  1  0  0  0
 15 42  1  0  0  0
 16 19  1  0  0  0
 16 43  1  0  0  0
 17 20  2  0  0  0
 17 44  1  0  0  0
 18 22  1  0  0  0
 18 45  1  0  0  0
 18 46  1  0  0  0
 19 21  2  0  0  0
 20 21  1  0  0  0
 20 47  1  0  0  0
 21 48  1  0  0  0
 22 23  2  0  0  0
 22 24  1  0  0  0
 23 25  1  0  0  0
 23 49  1  0  0  0
 24 26  2  0  0  0
 24 50  1  0  0  0
 25 27  2  0  0  0
 26 27  1  0  0  0
 26 51  1  0  0  0
 52 53  1  0  0  0
M  CHG  1  52   1
M  END
> <LID>
L000228

> <PC_CID>
127914

> <Names>
2-(3,4-dichlorophenyl)-N-methyl-N-(1-(3-isothiocyanatophenyl)-2-(1-pyrrolidinyl)ethyl)acetamide

> <CAS_Numbers>
155512-49-5

$$$$
26644
                    3D
 Structure written by MMmdl.
 67 73  0  0  1  0            999 V2000
    2.6836    0.8106    1.1338 O   0  0  0  0  0  0
    1.3693    3.3988    0.7288 O   0  0  0  0  0  0
   -1.5440    3.5035   -1.6796 O   0  0  0  0  0  0
    5.3281   -0.3355    0.4412 O   0  0  0  0  0  0
   -0.3681   -0.0761   -0.5261 C   0  0  1  0  0  0
    0.6127   -0.3059    0.6376 C   0  0  1  0  0  0
    0.7844    2.2074    0.1972 C   0  0  1  0  0  0
    1.2568    1.0336    1.1196 C   0  0  2  0  0  0
   -0.8635   -1.5063   -0.9048 C   0  0  1  0  0  0
   -1.4421    0.9698   -0.1172 C   0  0  0  0  0  0
   -0.7835    2.3155    0.3396 C   0  0  2  0  0  0
    0.3496    0.6167   -1.7373 C   0  0  0  0  0  0
    1.1260    1.8765   -1.2812 C   0  0  0  0  0  0
    0.0227   -1.1541    1.8056 C   0  0  0  0  0  0
    1.7916   -1.0355    0.0884 C   0  0  0  0  0  0
    0.3094   -2.4776   -1.2848 C   0  0  0  0  0  0
   -1.3831   -1.7381    1.5740 C   0  0  0  0  0  0
    1.7132   -2.1549   -0.7512 C   0  0  0  0  0  0
   -1.5307    3.5620   -0.2661 C   0  0  0  0  0  0
    2.9281   -0.3627    0.4797 C   0  0  0  0  0  0
   -3.1165   -2.2440   -0.1371 C   0  0  0  0  0  0
   -3.8614   -3.2292    0.7482 C   0  0  0  0  0  0
    2.9515   -2.7092   -1.1395 C   0  0  0  0  0  0
   -3.0087    3.5751    0.1815 C   0  0  0  0  0  0
   -0.9155    4.9263    0.1021 C   0  0  0  0  0  0
    4.1553   -0.9341    0.0864 C   0  0  0  0  0  0
   -5.1843   -3.8028    0.2945 C   0  0  0  0  0  0
   -3.9658   -4.6892    0.3710 C   0  0  0  0  0  0
    2.6472    3.7952    0.2462 C   0  0  0  0  0  0
    4.1631   -2.1155   -0.6996 C   0  0  0  0  0  0
    0.9640    1.2702    2.1427 H   0  0  0  0  0  0
   -1.4920   -1.4168   -1.7919 H   0  0  0  0  0  0
   -2.1052    0.6341    0.6711 H   0  0  0  0  0  0
   -2.1046    1.1165   -0.9701 H   0  0  0  0  0  0
   -0.9571    2.3893    1.4146 H   0  0  0  0  0  0
   -0.3885    0.9000   -2.4890 H   0  0  0  0  0  0
    1.0315   -0.0450   -2.2696 H   0  0  0  0  0  0
    2.1947    1.6914   -1.3917 H   0  0  0  0  0  0
    0.9039    2.7163   -1.9386 H   0  0  0  0  0  0
   -0.0192   -0.5711    2.7254 H   0  0  0  0  0  0
    0.6990   -1.9760    2.0475 H   0  0  0  0  0  0
    0.4045   -2.4739   -2.3713 H   0  0  0  0  0  0
    0.0668   -3.5097   -1.0284 H   0  0  0  0  0  0
   -2.1347   -1.0275    1.9134 H   0  0  0  0  0  0
   -1.5120   -2.6001    2.2292 H   0  0  0  0  0  0
   -3.2581   -2.5537   -1.1736 H   0  0  0  0  0  0
   -3.5711   -1.2575   -0.0383 H   0  0  0  0  0  0
   -3.8104   -3.0062    1.8121 H   0  0  0  0  0  0
    2.9794   -3.5617   -1.8022 H   0  0  0  0  0  0
   -3.5426    4.4356   -0.2239 H   0  0  0  0  0  0
   -3.5531    2.6884   -0.1421 H   0  0  0  0  0  0
   -3.0884    3.6285    1.2677 H   0  0  0  0  0  0
   -1.5582    5.7510   -0.2082 H   0  0  0  0  0  0
   -0.7684    5.0173    1.1787 H   0  0  0  0  0  0
    0.0434    5.0894   -0.3891 H   0  0  0  0  0  0
   -5.5454   -3.5319   -0.6958 H   0  0  0  0  0  0
   -5.9561   -3.9443    1.0485 H   0  0  0  0  0  0
   -3.9249   -5.4197    1.1764 H   0  0  0  0  0  0
   -3.5170   -5.0063   -0.5684 H   0  0  0  0  0  0
   -2.0047    4.2606   -2.0079 H   0  0  0  0  0  0
    3.4019    3.0195    0.3636 H   0  0  0  0  0  0
    2.9831    4.6667    0.8075 H   0  0  0  0  0  0
    2.6025    4.0855   -0.8036 H   0  0  0  0  0  0
    5.1056   -2.5428   -1.0093 H   0  0  0  0  0  0
    5.1922    0.4458    0.9557 H   0  0  0  0  0  0
   -1.6637   -2.1696    0.1743 N   0  3  1  0  0  0
   -1.3536   -3.1301    0.1363 H   0  0  0  0  0  0
  1  8  1  0  0  0
  1 20  1  0  0  0
  2  7  1  0  0  0
  2 29  1  0  0  0
  3 19  1  0  0  0
  3 60  1  0  0  0
  4 26  1  0  0  0
  4 65  1  0  0  0
  5  6  1  0  0  0
  5  9  1  0  0  0
  5 10  1  0  0  0
  5 12  1  0  0  0
  6  8  1  0  0  0
  6 14  1  0  0  0
  6 15  1  0  0  0
  7  8  1  0  0  0
  7 11  1  0  0  0
  7 13  1  0  0  0
  8 31  1  0  0  0
  9 16  1  0  0  0
  9 32  1  0  0  0
  9 66  1  0  0  0
 10 11  1  0  0  0
 10 33  1  0  0  0
 10 34  1  0  0  0
 11 19  1  0  0  0
 11 35  1  0  0  0
 12 13  1  0  0  0
 12 36  1  0  0  0
 12 37  1  0  0  0
 13 38  1  0  0  0
 13 39  1  0  0  0
 14 17  1  0  0  0
 14 40  1  0  0  0
 14 41  1  0  0  0
 15 18  2  0  0  0
 15 20  1  0  0  0
 16 18  1  0  0  0
 16 42  1  0  0  0
 16 43  1  0  0  0
 17 44  1  0  0  0
 17 45  1  0  0  0
 17 66  1  0  0  0
 18 23  1  0  0  0
 19 24  1  0  0  0
 19 25  1  0  0  0
 20 26  2  0  0  0
 21 22  1  0  0  0
 21 46  1  0  0  0
 21 47  1  0  0  0
 21 66  1  0  0  0
 22 27  1  0  0  0
 22 28  1  0  0  0
 22 48  1  0  0  0
 23 30  2  0  0  0
 23 49  1  0  0  0
 24 50  1  0  0  0
 24 51  1  0  0  0
 24 52  1  0  0  0
 25 53  1  0  0  0
 25 54  1  0  0  0
 25 55  1  0  0  0
 26 30  1  0  0  0
 27 28  1  0  0  0
 27 56  1  0  0  0
 27 57  1  0  0  0
 28 58  1  0  0  0
 28 59  1  0  0  0
 29 61  1  0  0  0
 29 62  1  0  0  0
 29 63  1  0  0  0
 30 64  1  0  0  0
 66 67  1  0  0  0
M  CHG  1  66   1
M  END
> <LID>
L000734

> <PC_CID>
26644

> <Names>
Diprenorphine

> <CAS_Numbers>
14357-78-9;16808-86-9

$$$$
5311304
                    3D
 Structure written by MMmdl.
 54 59  0  0  1  0            999 V2000
   -2.9105   -0.3631    1.4269 O   0  0  0  0  0  0
    1.0529   -2.3111    0.2639 O   0  0  0  0  0  0
   -3.4335   -1.7227   -0.8722 O   0  0  0  0  0  0
   -4.6053    2.0031    0.8158 O   0  0  0  0  0  0
   -0.7015   -0.6152    0.5958 C   0  0  1  0  0  0
    0.2370   -1.3474   -0.3930 C   0  0  1  0  0  0
    1.1904   -0.2618   -0.9618 C   0  0  1  0  0  0
   -1.9538   -1.3939    1.0989 C   0  0  2  0  0  0
    0.1633   -0.0869    1.7742 C   0  0  0  0  0  0
   -1.3800    0.5666   -0.0255 C   0  0  0  0  0  0
   -0.5435   -2.1575   -1.4482 C   0  0  0  0  0  0
   -2.5903   -2.3748    0.0608 C   0  0  2  0  0  0
    0.4274    0.8858   -1.6922 C   0  0  0  0  0  0
    1.3003    0.8405    1.2903 C   0  0  0  0  0  0
   -1.5416   -3.1274   -0.7772 C   0  0  0  0  0  0
   -0.8651    1.3825   -1.0423 C   0  0  0  0  0  0
   -2.6077    0.6884    0.6000 C   0  0  0  0  0  0
    3.2047    1.0738   -0.3013 C   0  0  0  0  0  0
    4.4115    0.9219    0.6215 C   0  0  0  0  0  0
   -1.6647    2.4892   -1.3984 C   0  0  0  0  0  0
    5.7354    1.6025    0.2405 C   0  0  0  0  0  0
    5.1922   -0.4021    0.6370 C   0  0  0  0  0  0
   -3.3853    1.8073    0.2390 C   0  0  0  0  0  0
    6.4744    0.4068    0.8461 C   0  0  0  0  0  0
   -2.9049    2.7095   -0.7448 C   0  0  0  0  0  0
    1.8553   -0.7381   -1.6843 H   0  0  0  0  0  0
   -1.6927   -1.9647    1.9909 H   0  0  0  0  0  0
    0.5889   -0.9190    2.3359 H   0  0  0  0  0  0
   -0.4548    0.4531    2.4929 H   0  0  0  0  0  0
    0.1468   -2.7169   -2.0813 H   0  0  0  0  0  0
   -1.0839   -1.4892   -2.1190 H   0  0  0  0  0  0
   -3.2172   -3.0916    0.5922 H   0  0  0  0  0  0
    0.1453    0.5291   -2.6831 H   0  0  0  0  0  0
    1.0788    1.7400   -1.8741 H   0  0  0  0  0  0
    0.9017    1.8130    1.0000 H   0  0  0  0  0  0
    1.9729    1.0325    2.1254 H   0  0  0  0  0  0
   -2.0375   -3.7289   -1.5405 H   0  0  0  0  0  0
   -1.0130   -3.8401   -0.1440 H   0  0  0  0  0  0
    2.9033    2.1198   -0.3711 H   0  0  0  0  0  0
    3.4950    0.7783   -1.3104 H   0  0  0  0  0  0
    0.4983   -2.9999    0.5986 H   0  0  0  0  0  0
    4.1730    1.2064    1.6478 H   0  0  0  0  0  0
   -1.3420    3.1601   -2.1809 H   0  0  0  0  0  0
    5.9204    2.5540    0.7402 H   0  0  0  0  0  0
    5.8794    1.6819   -0.8385 H   0  0  0  0  0  0
    5.1741   -0.9195   -0.3238 H   0  0  0  0  0  0
    4.9368   -1.0728    1.4581 H   0  0  0  0  0  0
    7.3337    0.0602    0.2712 H   0  0  0  0  0  0
    6.7198    0.5488    1.8999 H   0  0  0  0  0  0
   -4.0843   -1.2318   -0.3932 H   0  0  0  0  0  0
   -3.5087    3.5593   -1.0277 H   0  0  0  0  0  0
   -4.8122    1.3437    1.4606 H   0  0  0  0  0  0
    2.0565    0.2469    0.1513 N   0  3  2  0  0  0
    2.4695   -0.5992    0.5201 H   0  0  0  0  0  0
  1  8  1  0  0  0
  1 17  1  0  0  0
  2  6  1  0  0  0
  2 41  1  0  0  0
  3 12  1  0  0  0
  3 50  1  0  0  0
  4 23  1  0  0  0
  4 52  1  0  0  0
  5  6  1  0  0  0
  5  8  1  0  0  0
  5  9  1  0  0  0
  5 10  1  0  0  0
  6  7  1  0  0  0
  6 11  1  0  0  0
  7 13  1  0  0  0
  7 26  1  0  0  0
  7 53  1  0  0  0
  8 12  1  0  0  0
  8 27  1  0  0  0
  9 14  1  0  0  0
  9 28  1  0  0  0
  9 29  1  0  0  0
 10 16  2  0  0  0
 10 17  1  0  0  0
 11 15  1  0  0  0
 11 30  1  0  0  0
 11 31  1  0  0  0
 12 15  1  0  0  0
 12 32  1  0  0  0
 13 16  1  0  0  0
 13 33  1  0  0  0
 13 34  1  0  0  0
 14 35  1  0  0  0
 14 36  1  0  0  0
 14 53  1  0  0  0
 15 37  1  0  0  0
 15 38  1  0  0  0
 16 20  1  0  0  0
 17 23  2  0  0  0
 18 19  1  0  0  0
 18 39  1  0  0  0
 18 40  1  0  0  0
 18 53  1  0  0  0
 19 21  1  0  0  0
 19 22  1  0  0  0
 19 42  1  0  0  0
 20 25  2  0  0  0
 20 43  1  0  0  0
 21 24  1  0  0  0
 21 44  1  0  0  0
 21 45  1  0  0  0
 22 24  1  0  0  0
 22 46  1  0  0  0
 22 47  1  0  0  0
 23 25  1  0  0  0
 24 48  1  0  0  0
 24 49  1  0  0  0
 25 51  1  0  0  0
 53 54  1  0  0  0
M  CHG  1  53   1
M  END
> <LID>
L000735

> <PC_CID>
5311304

> <Names>
Nalbuphine

> <CAS_Numbers>
20594-83-6

$$$$
5484728
                    3D
 Structure written by MMmdl.
 58 65  0  0  1  0            999 V2000
   -0.9123   -1.9128   -1.5501 O   0  0  0  0  0  0
    0.6553    2.2501   -0.7333 O   0  0  0  0  0  0
   -1.1158   -4.5780   -0.2849 O   0  0  0  0  0  0
   -3.2216   -0.0085   -1.4366 N   0  0  0  0  0  0
    0.5715   -0.1980   -0.7785 C   0  0  1  0  0  0
    0.5804    1.0939    0.0896 C   0  0  1  0  0  0
    1.8780    1.0295    0.9422 C   0  0  1  0  0  0
   -0.7265   -0.4868   -1.5982 C   0  0  2  0  0  0
    1.8189   -0.2182   -1.6994 C   0  0  0  0  0  0
    0.5833   -1.3958    0.1284 C   0  0  0  0  0  0
   -0.7139    1.2939    0.9302 C   0  0  0  0  0  0
    1.9168   -0.2219    1.8737 C   0  0  0  0  0  0
    3.1363   -0.0563   -0.9192 C   0  0  0  0  0  0
    1.2716   -1.5068    1.3480 C   0  0  0  0  0  0
   -1.9298    0.1364   -0.9635 C   0  0  0  0  0  0
   -1.9443    0.9263    0.1538 C   0  0  0  0  0  0
    4.3480    1.3737    0.7153 C   0  0  0  0  0  0
   -0.2472   -2.3454   -0.4379 C   0  0  0  0  0  0
    5.3685    1.9916   -0.2225 C   0  0  0  0  0  0
    6.7940    2.1873    0.2418 C   0  0  0  0  0  0
    6.4853    1.1668   -0.8234 C   0  0  0  0  0  0
   -3.3160    1.2867    0.3885 C   0  0  0  0  0  0
    1.1674   -2.7542    1.9992 C   0  0  0  0  0  0
   -0.3289   -3.5872    0.2237 C   0  0  0  0  0  0
   -4.1089    0.6823   -0.6333 C   0  0  0  0  0  0
    0.3902   -3.7929    1.4276 C   0  0  0  0  0  0
   -3.9916    2.0642    1.3587 C   0  0  0  0  0  0
   -5.5052    0.8441   -0.6863 C   0  0  0  0  0  0
   -5.3908    2.2319    1.3131 C   0  0  0  0  0  0
   -6.1477    1.6236    0.2931 C   0  0  0  0  0  0
    1.9198    1.9218    1.5689 H   0  0  0  0  0  0
   -0.6392   -0.1411   -2.6289 H   0  0  0  0  0  0
    1.7438    0.5818   -2.4370 H   0  0  0  0  0  0
    1.8514   -1.1445   -2.2748 H   0  0  0  0  0  0
   -0.7801    2.3174    1.3025 H   0  0  0  0  0  0
   -0.6824    0.6664    1.8201 H   0  0  0  0  0  0
    1.3788    0.0241    2.7896 H   0  0  0  0  0  0
    2.9308   -0.4483    2.2005 H   0  0  0  0  0  0
    3.3807   -0.9728   -0.3814 H   0  0  0  0  0  0
    3.9471    0.1014   -1.6303 H   0  0  0  0  0  0
    4.7587    0.4708    1.1689 H   0  0  0  0  0  0
    4.1801    2.0861    1.5238 H   0  0  0  0  0  0
    4.9724    2.7985   -0.8367 H   0  0  0  0  0  0
   -0.1612    2.3366   -1.2035 H   0  0  0  0  0  0
    7.0637    1.8151    1.2284 H   0  0  0  0  0  0
    7.3032    3.0980   -0.0674 H   0  0  0  0  0  0
    6.7857    1.3973   -1.8436 H   0  0  0  0  0  0
    6.5496    0.1165   -0.5456 H   0  0  0  0  0  0
   -3.4549   -0.5570   -2.2518 H   0  0  0  0  0  0
    1.6597   -2.9113    2.9477 H   0  0  0  0  0  0
    0.3157   -4.7421    1.9378 H   0  0  0  0  0  0
   -3.4254    2.5368    2.1476 H   0  0  0  0  0  0
   -6.0798    0.3747   -1.4710 H   0  0  0  0  0  0
   -1.5553   -4.3176   -1.0802 H   0  0  0  0  0  0
   -5.8853    2.8298    2.0647 H   0  0  0  0  0  0
   -7.2195    1.7551    0.2630 H   0  0  0  0  0  0
    3.0628    1.0868    0.0289 N   0  3  2  0  0  0
    2.8787    1.9003   -0.5427 H   0  0  0  0  0  0
  1  8  1  0  0  0
  1 18  1  0  0  0
  2  6  1  0  0  0
  2 44  1  0  0  0
  3 24  1  0  0  0
  3 54  1  0  0  0
  4 15  1  0  0  0
  4 25  1  0  0  0
  4 49  1  0  0  0
  5  6  1  0  0  0
  5  8  1  0  0  0
  5  9  1  0  0  0
  5 10  1  0  0  0
  6  7  1  0  0  0
  6 11  1  0  0  0
  7 12  1  0  0  0
  7 31  1  0  0  0
  7 57  1  0  0  0
  8 15  1  0  0  0
  8 32  1  0  0  0
  9 13  1  0  0  0
  9 33  1  0  0  0
  9 34  1  0  0  0
 10 14  2  0  0  0
 10 18  1  0  0  0
 11 16  1  0  0  0
 11 35  1  0  0  0
 11 36  1  0  0  0
 12 14  1  0  0  0
 12 37  1  0  0  0
 12 38  1  0  0  0
 13 39  1  0  0  0
 13 40  1  0  0  0
 13 57  1  0  0  0
 14 23  1  0  0  0
 15 16  2  0  0  0
 16 22  1  0  0  0
 17 19  1  0  0  0
 17 41  1  0  0  0
 17 42  1  0  0  0
 17 57  1  0  0  0
 18 24  2  0  0  0
 19 20  1  0  0  0
 19 21  1  0  0  0
 19 43  1  0  0  0
 20 21  1  0  0  0
 20 45  1  0  0  0
 20 46  1  0  0  0
 21 47  1  0  0  0
 21 48  1  0  0  0
 22 25  1  0  0  0
 22 27  2  0  0  0
 23 26  2  0  0  0
 23 50  1  0  0  0
 24 26  1  0  0  0
 25 28  2  0  0  0
 26 51  1  0  0  0
 27 29  1  0  0  0
 27 52  1  0  0  0
 28 30  1  0  0  0
 28 53  1  0  0  0
 29 30  2  0  0  0
 29 55  1  0  0  0
 30 56  1  0  0  0
 57 58  1  0  0  0
M  CHG  1  57   1
M  END
> <LID>
L000430

> <PC_CID>
5484728

> <Names>
naltrindole

> <CAS_Numbers>
111555-53-4

$$$$
5311018
                    3D
 Structure written by MMmdl.
 64 69  0  0  1  0            999 V2000
   -0.6464   -1.2630   -0.7574 O   0  0  0  0  0  0
    1.6951    2.5131    0.2033 O   0  0  0  0  0  0
   -0.6728   -4.1811   -0.2137 O   0  0  0  0  0  0
   -3.4278   -1.3321    0.4772 O   0  0  0  0  0  0
   -7.1937    1.8071   -0.6302 O   0  0  0  0  0  0
   -8.2554   -0.2069   -0.7441 O   0  0  0  0  0  0
   -2.5750    0.7647    0.5299 N   0  0  0  0  0  0
    1.1690    0.1470   -0.2092 C   0  0  1  0  0  0
    1.7264    1.2080    0.7677 C   0  0  1  0  0  0
    3.2186    0.8430    0.9988 C   0  0  1  0  0  0
   -0.3782    0.1121   -0.4153 C   0  0  2  0  0  0
    1.9198    0.2798   -1.5619 C   0  0  0  0  0  0
    1.3877   -1.2415    0.3124 C   0  0  0  0  0  0
    0.8809    1.3001    2.0551 C   0  0  0  0  0  0
   -1.1977    0.4215    0.8749 C   0  0  1  0  0  0
    3.3951   -0.5798    1.6137 C   0  0  0  0  0  0
    3.4481    0.1456   -1.3969 C   0  0  0  0  0  0
   -0.6005    1.5555    1.7262 C   0  0  0  0  0  0
    2.4613   -1.6782    1.1021 C   0  0  0  0  0  0
    0.3186   -1.9977   -0.1258 C   0  0  0  0  0  0
    5.4379    0.9756   -0.1555 C   0  0  0  0  0  0
    6.1308    1.7042   -1.2919 C   0  0  0  0  0  0
    7.6345    1.6258   -1.4288 C   0  0  0  0  0  0
    6.7521    0.9498   -2.4467 C   0  0  0  0  0  0
    2.4711   -3.0556    1.4094 C   0  0  0  0  0  0
    0.3494   -3.3715    0.1851 C   0  0  0  0  0  0
    1.4315   -3.8974    0.9361 C   0  0  0  0  0  0
   -3.5742   -0.1150    0.3573 C   0  0  0  0  0  0
   -4.8153    0.5591    0.0176 C   0  0  0  0  0  0
   -5.9429   -0.1508   -0.2006 C   0  0  0  0  0  0
   -7.2400    0.4616   -0.5493 C   0  0  0  0  0  0
   -8.3668    2.5325   -0.9570 C   0  0  0  0  0  0
    3.6441    1.5664    1.6964 H   0  0  0  0  0  0
   -0.6718    0.7885   -1.2195 H   0  0  0  0  0  0
    1.5694   -0.4721   -2.2705 H   0  0  0  0  0  0
    1.6904    1.2396   -2.0259 H   0  0  0  0  0  0
    0.9576    0.3797    2.6345 H   0  0  0  0  0  0
    1.2602    2.0932    2.7010 H   0  0  0  0  0  0
   -1.2047   -0.4617    1.5172 H   0  0  0  0  0  0
    3.2106   -0.5095    2.6860 H   0  0  0  0  0  0
    4.4242   -0.9266    1.5291 H   0  0  0  0  0  0
    3.7251   -0.8932   -1.2150 H   0  0  0  0  0  0
    3.9273    0.4239   -2.3354 H   0  0  0  0  0  0
   -1.1626    1.6451    2.6568 H   0  0  0  0  0  0
   -0.7164    2.5119    1.2151 H   0  0  0  0  0  0
    5.8031   -0.0504   -0.0937 H   0  0  0  0  0  0
    5.7279    1.4718    0.7714 H   0  0  0  0  0  0
    5.7005    2.6779   -1.5199 H   0  0  0  0  0  0
    0.7934    2.7638    0.0685 H   0  0  0  0  0  0
    8.1590    2.5276   -1.7386 H   0  0  0  0  0  0
    8.1764    0.9874   -0.7335 H   0  0  0  0  0  0
    6.7068   -0.1375   -2.4283 H   0  0  0  0  0  0
    6.6854    1.4015   -3.4344 H   0  0  0  0  0  0
   -2.7855    1.7450    0.4134 H   0  0  0  0  0  0
    3.2593   -3.4671    2.0227 H   0  0  0  0  0  0
    1.4476   -4.9491    1.1822 H   0  0  0  0  0  0
   -1.3584   -3.7032   -0.6562 H   0  0  0  0  0  0
   -4.8213    1.6376   -0.0576 H   0  0  0  0  0  0
   -5.9314   -1.2292   -0.1240 H   0  0  0  0  0  0
   -8.1485    3.6002   -0.9782 H   0  0  0  0  0  0
   -8.7428    2.2423   -1.9389 H   0  0  0  0  0  0
   -9.1497    2.3597   -0.2175 H   0  0  0  0  0  0
    3.9598    1.0045   -0.2937 N   0  3  2  0  0  0
    3.7366    1.9512   -0.5700 H   0  0  0  0  0  0
  1 11  1  0  0  0
  1 20  1  0  0  0
  2  9  1  0  0  0
  2 49  1  0  0  0
  3 26  1  0  0  0
  3 57  1  0  0  0
  4 28  2  0  0  0
  5 31  1  0  0  0
  5 32  1  0  0  0
  6 31  2  0  0  0
  7 15  1  0  0  0
  7 28  1  0  0  0
  7 54  1  0  0  0
  8  9  1  0  0  0
  8 11  1  0  0  0
  8 12  1  0  0  0
  8 13  1  0  0  0
  9 10  1  0  0  0
  9 14  1  0  0  0
 10 16  1  0  0  0
 10 33  1  0  0  0
 10 63  1  0  0  0
 11 15  1  0  0  0
 11 34  1  0  0  0
 12 17  1  0  0  0
 12 35  1  0  0  0
 12 36  1  0  0  0
 13 19  2  0  0  0
 13 20  1  0  0  0
 14 18  1  0  0  0
 14 37  1  0  0  0
 14 38  1  0  0  0
 15 18  1  0  0  0
 15 39  1  0  0  0
 16 19  1  0  0  0
 16 40  1  0  0  0
 16 41  1  0  0  0
 17 42  1  0  0  0
 17 43  1  0  0  0
 17 63  1  0  0  0
 18 44  1  0  0  0
 18 45  1  0  0  0
 19 25  1  0  0  0
 20 26  2  0  0  0
 21 22  1  0  0  0
 21 46  1  0  0  0
 21 47  1  0  0  0
 21 63  1  0  0  0
 22 23  1  0  0  0
 22 24  1  0  0  0
 22 48  1  0  0  0
 23 24  1  0  0  0
 23 50  1  0  0  0
 23 51  1  0  0  0
 24 52  1  0  0  0
 24 53  1  0  0  0
 25 27  2  0  0  0
 25 55  1  0  0  0
 26 27  1  0  0  0
 27 56  1  0  0  0
 28 29  1  0  0  0
 29 30  2  0  0  0
 29 58  1  0  0  0
 30 31  1  0  0  0
 30 59  1  0  0  0
 32 60  1  0  0  0
 32 61  1  0  0  0
 32 62  1  0  0  0
 63 64  1  0  0  0
M  CHG  1  63   1
M  END
> <LID>
L000641

> <PC_CID>
5311018

> <Names>
beta-funaltrexamine

> <CAS_Numbers>
72782-05-9

$$$$
5311033
                    3D
 Structure written by MMmdl.
 76 82  0  0  1  0            999 V2000
   -1.1427   -0.8790   -1.9916 O   0  0  0  0  0  0
   -2.2978    2.0279   -1.7649 O   0  0  0  0  0  0
   -3.4872   -0.1479   -0.5742 O   0  0  0  0  0  0
   -2.0784   -3.6713   -1.7537 O   0  0  0  0  0  0
    0.9159    0.7866    0.4363 C   0  0  1  0  0  0
    0.8107   -0.0596   -0.8526 C   0  0  1  0  0  0
   -1.1901    1.5023   -1.0253 C   0  0  2  0  0  0
   -0.4149    0.3364   -1.7283 C   0  0  2  0  0  0
   -1.6499    1.1414    0.4374 C   0  0  2  0  0  0
   -0.4030    0.6806    1.2672 C   0  0  0  0  0  0
    2.1431    0.1977    1.1994 C   0  0  1  0  0  0
    1.0171    2.2867    0.0546 C   0  0  0  0  0  0
   -0.1619    2.6704   -0.8778 C   0  0  0  0  0  0
    2.1150    0.0077   -1.6949 C   0  0  0  0  0  0
    0.4914   -1.4638   -0.4691 C   0  0  0  0  0  0
    1.9721   -1.3312    1.5260 C   0  0  0  0  0  0
   -3.0271    0.3629    0.6633 C   0  0  1  0  0  0
    3.3864   -0.2974   -0.8879 C   0  0  0  0  0  0
    1.0998   -2.1722    0.5786 C   0  0  0  0  0  0
   -0.5855   -1.8680   -1.2304 C   0  0  0  0  0  0
    4.6429    0.2831    1.1761 C   0  0  0  0  0  0
   -4.1858    1.2854    1.2402 C   0  0  0  0  0  0
    5.7952    1.0428    0.5455 C   0  0  0  0  0  0
   -2.8768   -0.9364    1.4988 C   0  0  0  0  0  0
    0.6473   -3.4968    0.7574 C   0  0  0  0  0  0
   -1.0209   -3.1946   -1.0372 C   0  0  0  0  0  0
    7.1975    0.8612    1.0809 C   0  0  0  0  0  0
    6.8422    0.3353   -0.2862 C   0  0  0  0  0  0
   -2.1722    2.1756   -3.1729 C   0  0  0  0  0  0
   -0.3836   -4.0128   -0.0695 C   0  0  0  0  0  0
   -5.5339    0.5273    1.3697 C   0  0  0  0  0  0
   -3.8442    1.8145    2.6554 C   0  0  0  0  0  0
   -4.4665    2.5055    0.3271 C   0  0  0  0  0  0
   -0.0566    0.6855   -2.6971 H   0  0  0  0  0  0
   -1.8346    2.1239    0.8600 H   0  0  0  0  0  0
   -0.3225    1.3014    2.1609 H   0  0  0  0  0  0
   -0.5028   -0.3199    1.6672 H   0  0  0  0  0  0
    2.2526    0.7434    2.1377 H   0  0  0  0  0  0
    1.9596    2.5299   -0.4345 H   0  0  0  0  0  0
    0.9922    2.9017    0.9553 H   0  0  0  0  0  0
   -0.6528    3.5675   -0.4978 H   0  0  0  0  0  0
    0.2415    2.9492   -1.8510 H   0  0  0  0  0  0
    2.2181    1.0030   -2.1277 H   0  0  0  0  0  0
    2.0514   -0.6719   -2.5461 H   0  0  0  0  0  0
    1.4908   -1.4054    2.5017 H   0  0  0  0  0  0
    2.9309   -1.8315    1.6553 H   0  0  0  0  0  0
    3.4800   -1.3696   -0.7134 H   0  0  0  0  0  0
    4.2558   -0.0122   -1.4801 H   0  0  0  0  0  0
    4.9084   -0.7689    1.2871 H   0  0  0  0  0  0
    4.5063    0.6825    2.1817 H   0  0  0  0  0  0
    5.5454    2.0613    0.2528 H   0  0  0  0  0  0
   -3.7978   -1.5149    1.5514 H   0  0  0  0  0  0
   -2.1461   -1.6139    1.0612 H   0  0  0  0  0  0
   -2.5645   -0.7363    2.5231 H   0  0  0  0  0  0
    1.0498   -4.1031    1.5555 H   0  0  0  0  0  0
   -4.3156   -0.5782   -0.4300 H   0  0  0  0  0  0
    7.3491    0.1315    1.8740 H   0  0  0  0  0  0
    7.8350    1.7418    1.1302 H   0  0  0  0  0  0
    7.2402    0.8661   -1.1488 H   0  0  0  0  0  0
    6.7576   -0.7435   -0.4022 H   0  0  0  0  0  0
   -1.3138    2.7844   -3.4543 H   0  0  0  0  0  0
   -3.0642    2.6702   -3.5566 H   0  0  0  0  0  0
   -2.1020    1.2085   -3.6709 H   0  0  0  0  0  0
   -0.7317   -5.0235    0.0856 H   0  0  0  0  0  0
   -6.3304    1.1988    1.6931 H   0  0  0  0  0  0
   -5.8602    0.0919    0.4253 H   0  0  0  0  0  0
   -5.4969   -0.2690    2.1121 H   0  0  0  0  0  0
   -4.6438    2.4510    3.0363 H   0  0  0  0  0  0
   -3.7224    1.0061    3.3756 H   0  0  0  0  0  0
   -2.9351    2.4129    2.6815 H   0  0  0  0  0  0
   -5.2945    3.1027    0.7105 H   0  0  0  0  0  0
   -3.6174    3.1821    0.2455 H   0  0  0  0  0  0
   -4.7413    2.1987   -0.6823 H   0  0  0  0  0  0
   -2.4405   -3.0173   -2.3327 H   0  0  0  0  0  0
    3.3844    0.4391    0.4025 N   0  3  2  0  0  0
    3.3478    1.4196    0.1631 H   0  0  0  0  0  0
  1  8  1  0  0  0
  1 20  1  0  0  0
  2  7  1  0  0  0
  2 29  1  0  0  0
  3 17  1  0  0  0
  3 56  1  0  0  0
  4 26  1  0  0  0
  4 74  1  0  0  0
  5  6  1  0  0  0
  5 10  1  0  0  0
  5 11  1  0  0  0
  5 12  1  0  0  0
  6  8  1  0  0  0
  6 14  1  0  0  0
  6 15  1  0  0  0
  7  8  1  0  0  0
  7  9  1  0  0  0
  7 13  1  0  0  0
  8 34  1  0  0  0
  9 10  1  0  0  0
  9 17  1  0  0  0
  9 35  1  0  0  0
 10 36  1  0  0  0
 10 37  1  0  0  0
 11 16  1  0  0  0
 11 38  1  0  0  0
 11 75  1  0  0  0
 12 13  1  0  0  0
 12 39  1  0  0  0
 12 40  1  0  0  0
 13 41  1  0  0  0
 13 42  1  0  0  0
 14 18  1  0  0  0
 14 43  1  0  0  0
 14 44  1  0  0  0
 15 19  2  0  0  0
 15 20  1  0  0  0
 16 19  1  0  0  0
 16 45  1  0  0  0
 16 46  1  0  0  0
 17 22  1  0  0  0
 17 24  1  0  0  0
 18 47  1  0  0  0
 18 48  1  0  0  0
 18 75  1  0  0  0
 19 25  1  0  0  0
 20 26  2  0  0  0
 21 23  1  0  0  0
 21 49  1  0  0  0
 21 50  1  0  0  0
 21 75  1  0  0  0
 22 31  1  0  0  0
 22 32  1  0  0  0
 22 33  1  0  0  0
 23 27  1  0  0  0
 23 28  1  0  0  0
 23 51  1  0  0  0
 24 52  1  0  0  0
 24 53  1  0  0  0
 24 54  1  0  0  0
 25 30  2  0  0  0
 25 55  1  0  0  0
 26 30  1  0  0  0
 27 28  1  0  0  0
 27 57  1  0  0  0
 27 58  1  0  0  0
 28 59  1  0  0  0
 28 60  1  0  0  0
 29 61  1  0  0  0
 29 62  1  0  0  0
 29 63  1  0  0  0
 30 64  1  0  0  0
 31 65  1  0  0  0
 31 66  1  0  0  0
 31 67  1  0  0  0
 32 68  1  0  0  0
 32 69  1  0  0  0
 32 70  1  0  0  0
 33 71  1  0  0  0
 33 72  1  0  0  0
 33 73  1  0  0  0
 75 76  1  0  0  0
M  CHG  1  75   1
M  END
> <LID>
L024010

> <PC_CID>
5311033

> <Names>
Buprenorphine

> <CAS_Numbers>


$$$$
5462346
                    3D
 Structure written by MMmdl.
 54 58  0  0  1  0            999 V2000
    3.8311    7.1241   -2.0964 O   0  0  0  0  0  0
    0.4113    3.7601    1.9738 O   0  0  0  0  0  0
    4.0150    6.7306    0.2858 C   0  0  1  0  0  0
    4.2405    7.7390   -0.8793 C   0  0  2  0  0  0
    3.3264    8.9789   -0.6479 C   0  0  1  0  0  0
    4.4394    7.4650    1.5858 C   0  0  0  0  0  0
    4.8792    5.4402    0.0807 C   0  0  0  0  0  0
    5.7378    8.0878   -1.1445 C   0  0  0  0  0  0
    2.5147    6.3845    0.4366 C   0  0  0  0  0  0
    3.6024    8.7322    1.8547 C   0  0  0  0  0  0
    1.8418    8.5613   -0.7645 C   0  0  0  0  0  0
    6.1084    5.5778   -0.8424 C   0  0  0  0  0  0
    6.7389    6.9698   -0.7890 C   0  0  0  0  0  0
    1.5012    7.2554   -0.0550 C   0  0  0  0  0  0
    4.5260   10.7639    0.7684 C   0  0  0  0  0  0
    4.3806   11.8339   -0.3170 C   0  0  0  0  0  0
    2.1223    5.2166    1.1346 C   0  0  0  0  0  0
    5.0019   13.2185   -0.0679 C   0  0  0  0  0  0
    5.2516   11.7765   -1.5865 C   0  0  0  0  0  0
    5.3162   13.3041   -1.5620 C   0  0  0  0  0  0
    0.1408    6.9253    0.1162 C   0  0  0  0  0  0
    0.7627    4.8959    1.3046 C   0  0  0  0  0  0
   -0.2299    5.7478    0.7891 C   0  0  0  0  0  0
    3.4948    9.6972   -1.4463 H   0  0  0  0  0  0
    4.3352    6.7949    2.4402 H   0  0  0  0  0  0
    5.4921    7.7388    1.5635 H   0  0  0  0  0  0
    4.2699    4.6558   -0.3700 H   0  0  0  0  0  0
    5.1873    5.0424    1.0483 H   0  0  0  0  0  0
    6.0483    8.9658   -0.5939 H   0  0  0  0  0  0
    5.8703    8.3741   -2.1897 H   0  0  0  0  0  0
    3.9917    9.2498    2.7322 H   0  0  0  0  0  0
    2.5849    8.4559    2.1302 H   0  0  0  0  0  0
    1.5749    8.4395   -1.8151 H   0  0  0  0  0  0
    1.1955    9.3571   -0.3912 H   0  0  0  0  0  0
    5.8169    5.3661   -1.8719 H   0  0  0  0  0  0
    6.8483    4.8191   -0.5857 H   0  0  0  0  0  0
    7.1450    7.1340    0.2088 H   0  0  0  0  0  0
    7.5955    7.0180   -1.4620 H   0  0  0  0  0  0
    5.5457   10.3909    0.8260 H   0  0  0  0  0  0
    4.3657   11.2497    1.7318 H   0  0  0  0  0  0
    3.3342   11.9857   -0.5916 H   0  0  0  0  0  0
    2.9683    6.7575   -1.9716 H   0  0  0  0  0  0
    2.8641    4.5534    1.5543 H   0  0  0  0  0  0
    4.3044   13.9739    0.2954 H   0  0  0  0  0  0
    5.9022   13.1764    0.5478 H   0  0  0  0  0  0
    4.7621   11.3628   -2.4685 H   0  0  0  0  0  0
    6.2262   11.3156   -1.4175 H   0  0  0  0  0  0
    6.2928   13.7258   -1.8019 H   0  0  0  0  0  0
    4.5167   13.7726   -2.1383 H   0  0  0  0  0  0
   -0.6276    7.5821   -0.2651 H   0  0  0  0  0  0
   -1.2757    5.5085    0.9156 H   0  0  0  0  0  0
   -0.5234    3.6339    2.0304 H   0  0  0  0  0  0
    3.5343    9.6528    0.6836 N   0  3  1  0  0  0
    2.6660   10.1498    0.8219 H   0  0  0  0  0  0
  1  4  1  0  0  0
  1 42  1  0  0  0
  2 22  1  0  0  0
  2 52  1  0  0  0
  3  4  1  0  0  0
  3  6  1  0  0  0
  3  7  1  0  0  0
  3  9  1  0  0  0
  4  5  1  0  0  0
  4  8  1  0  0  0
  5 11  1  0  0  0
  5 24  1  0  0  0
  5 53  1  0  0  0
  6 10  1  0  0  0
  6 25  1  0  0  0
  6 26  1  0  0  0
  7 12  1  0  0  0
  7 27  1  0  0  0
  7 28  1  0  0  0
  8 13  1  0  0  0
  8 29  1  0  0  0
  8 30  1  0  0  0
  9 14  2  0  0  0
  9 17  1  0  0  0
 10 31  1  0  0  0
 10 32  1  0  0  0
 10 53  1  0  0  0
 11 14  1  0  0  0
 11 33  1  0  0  0
 11 34  1  0  0  0
 12 13  1  0  0  0
 12 35  1  0  0  0
 12 36  1  0  0  0
 13 37  1  0  0  0
 13 38  1  0  0  0
 14 21  1  0  0  0
 15 16  1  0  0  0
 15 39  1  0  0  0
 15 40  1  0  0  0
 15 53  1  0  0  0
 16 18  1  0  0  0
 16 19  1  0  0  0
 16 41  1  0  0  0
 17 22  2  0  0  0
 17 43  1  0  0  0
 18 20  1  0  0  0
 18 44  1  0  0  0
 18 45  1  0  0  0
 19 20  1  0  0  0
 19 46  1  0  0  0
 19 47  1  0  0  0
 20 48  1  0  0  0
 20 49  1  0  0  0
 21 23  2  0  0  0
 21 50  1  0  0  0
 22 23  1  0  0  0
 23 51  1  0  0  0
 53 54  1  0  0  0
M  CHG  1  53   1
M  END
> <LID>
L001244

> <PC_CID>
5462346

> <Names>
Butorphanol

> <CAS_Numbers>
58786-99-5

$$$$
115077
                    3D
 Structure written by MMmdl.
 66 69  0  0  1  0            999 V2000
   -0.2887    3.2930   -2.2701 O   0  0  0  0  0  0
   -1.9157   -1.4218    3.5819 O   0  0  0  0  0  0
    1.6970   -1.6337    0.9643 C   0  0  2  0  0  0
    2.0920   -0.2611    0.2820 C   0  0  1  0  0  0
    1.4899   -2.6571   -0.1960 C   0  0  1  0  0  0
    3.4066   -0.4592   -0.5208 C   0  0  0  0  0  0
    0.4638   -1.5499    1.9412 C   0  0  0  0  0  0
    0.3346   -2.2627   -1.1440 C   0  0  0  0  0  0
    1.0247    0.1852   -0.7482 C   0  0  0  0  0  0
    3.3210   -1.6076   -1.5469 C   0  0  0  0  0  0
    2.8208   -2.2087    1.8868 C   0  0  0  0  0  0
    2.3514    0.8294    1.3575 C   0  0  0  0  0  0
    0.2167   -0.7717   -1.4235 C   0  0  0  0  0  0
   -0.8019   -0.7600    1.5372 C   0  0  0  0  0  0
    2.8143   -4.0113   -1.8457 C   0  0  0  0  0  0
    0.8442    1.5556   -1.0651 C   0  0  0  0  0  0
   -0.7536   -0.3529   -2.3575 C   0  0  0  0  0  0
   -1.8434   -0.6241    2.6486 C   0  0  0  0  0  0
   -0.1273    1.9661   -1.9971 C   0  0  0  0  0  0
   -0.9309    1.0114   -2.6424 C   0  0  0  0  0  0
   -2.7948    0.5665    2.5441 C   0  0  0  0  0  0
   -4.2679    1.8523    0.8829 C   0  0  0  0  0  0
   -3.7144    0.4827    1.3103 C   0  0  0  0  0  0
   -5.2822    1.7645   -0.2606 C   0  0  0  0  0  0
   -3.1941    2.8260    0.3642 C   0  0  0  0  0  0
   -5.2971    3.1724   -0.8501 C   0  0  0  0  0  0
   -3.8430    3.6432   -0.7635 C   0  0  0  0  0  0
    1.2418   -3.6279    0.2362 H   0  0  0  0  0  0
    4.2455   -0.6357    0.1516 H   0  0  0  0  0  0
    3.6644    0.4621   -1.0453 H   0  0  0  0  0  0
    0.8020   -1.1082    2.8802 H   0  0  0  0  0  0
    0.1626   -2.5651    2.2043 H   0  0  0  0  0  0
    0.3952   -2.7924   -2.0932 H   0  0  0  0  0  0
   -0.6065   -2.5985   -0.7107 H   0  0  0  0  0  0
    2.7087   -1.3198   -2.4020 H   0  0  0  0  0  0
    4.3168   -1.8064   -1.9449 H   0  0  0  0  0  0
    3.7816   -2.3553    1.3978 H   0  0  0  0  0  0
    3.0115   -1.5814    2.7568 H   0  0  0  0  0  0
    2.5329   -3.1851    2.2789 H   0  0  0  0  0  0
    3.0702    0.5059    2.1078 H   0  0  0  0  0  0
    2.7810    1.7351    0.9315 H   0  0  0  0  0  0
    1.4407    1.1149    1.8831 H   0  0  0  0  0  0
   -1.3042   -1.2286    0.6965 H   0  0  0  0  0  0
   -0.5417    0.2520    1.2343 H   0  0  0  0  0  0
    2.4296   -4.9056   -1.3544 H   0  0  0  0  0  0
    2.2335   -3.8370   -2.7512 H   0  0  0  0  0  0
    3.8407   -4.2201   -2.1490 H   0  0  0  0  0  0
    1.4434    2.3229   -0.6024 H   0  0  0  0  0  0
   -1.3740   -1.0830   -2.8567 H   0  0  0  0  0  0
   -1.6812    1.3190   -3.3560 H   0  0  0  0  0  0
   -2.1790    1.4642    2.4924 H   0  0  0  0  0  0
   -3.3885    0.6488    3.4549 H   0  0  0  0  0  0
   -4.7685    2.3163    1.7345 H   0  0  0  0  0  0
   -4.5436   -0.1888    1.5365 H   0  0  0  0  0  0
   -3.1955    0.0395    0.4595 H   0  0  0  0  0  0
   -6.2678    1.4427    0.0772 H   0  0  0  0  0  0
   -4.9406    1.0558   -1.0166 H   0  0  0  0  0  0
   -2.3330    2.2841   -0.0290 H   0  0  0  0  0  0
   -2.8284    3.4690    1.1655 H   0  0  0  0  0  0
   -5.9287    3.8174   -0.2376 H   0  0  0  0  0  0
   -5.6863    3.1974   -1.8684 H   0  0  0  0  0  0
   -3.3292    3.4398   -1.7040 H   0  0  0  0  0  0
   -3.7786    4.7166   -0.5826 H   0  0  0  0  0  0
   -0.9599    3.4631   -2.9130 H   0  0  0  0  0  0
    2.7821   -2.8463   -0.9309 N   0  3  2  0  0  0
    3.4429   -3.0804   -0.2037 H   0  0  0  0  0  0
  1 19  1  0  0  0
  1 64  1  0  0  0
  2 18  2  0  0  0
  3  4  1  0  0  0
  3  5  1  0  0  0
  3  7  1  0  0  0
  3 11  1  0  0  0
  4  6  1  0  0  0
  4  9  1  0  0  0
  4 12  1  0  0  0
  5  8  1  0  0  0
  5 28  1  0  0  0
  5 65  1  0  0  0
  6 10  1  0  0  0
  6 29  1  0  0  0
  6 30  1  0  0  0
  7 14  1  0  0  0
  7 31  1  0  0  0
  7 32  1  0  0  0
  8 13  1  0  0  0
  8 33  1  0  0  0
  8 34  1  0  0  0
  9 13  2  0  0  0
  9 16  1  0  0  0
 10 35  1  0  0  0
 10 36  1  0  0  0
 10 65  1  0  0  0
 11 37  1  0  0  0
 11 38  1  0  0  0
 11 39  1  0  0  0
 12 40  1  0  0  0
 12 41  1  0  0  0
 12 42  1  0  0  0
 13 17  1  0  0  0
 14 18  1  0  0  0
 14 43  1  0  0  0
 14 44  1  0  0  0
 15 45  1  0  0  0
 15 46  1  0  0  0
 15 47  1  0  0  0
 15 65  1  0  0  0
 16 19  2  0  0  0
 16 48  1  0  0  0
 17 20  2  0  0  0
 17 49  1  0  0  0
 18 21  1  0  0  0
 19 20  1  0  0  0
 20 50  1  0  0  0
 21 23  1  0  0  0
 21 51  1  0  0  0
 21 52  1  0  0  0
 22 23  1  0  0  0
 22 24  1  0  0  0
 22 25  1  0  0  0
 22 53  1  0  0  0
 23 54  1  0  0  0
 23 55  1  0  0  0
 24 26  1  0  0  0
 24 56  1  0  0  0
 24 57  1  0  0  0
 25 27  1  0  0  0
 25 58  1  0  0  0
 25 59  1  0  0  0
 26 27  1  0  0  0
 26 60  1  0  0  0
 26 61  1  0  0  0
 27 62  1  0  0  0
 27 63  1  0  0  0
 65 66  1  0  0  0
M  CHG  1  65   1
M  END
> <LID>
L024019

> <PC_CID>
115077

> <Names>
quadazocine

> <CAS_Numbers>
69924-29-4

$$$$
9826034
                    3D
 Structure written by MMmdl.
 65 72  0  0  1  0            999 V2000
    0.5994    2.6023    1.3578 O   0  0  0  0  0  0
    1.3414   -1.8588    1.4033 O   0  0  0  0  0  0
    0.5828    4.9075   -0.4945 O   0  0  0  0  0  0
   -1.9564    1.1967    2.0422 N   0  0  0  0  0  0
   -5.8018   -1.9959   -0.3918 N   0  0  0  0  0  0
   -7.3880   -2.3333   -2.0570 N   0  0  0  0  0  0
   -6.3828   -0.2580   -1.9127 N   0  0  0  0  0  0
    1.6421    0.5077    0.8451 C   0  0  1  0  0  0
    1.2985   -0.9223    0.3353 C   0  0  1  0  0  0
    2.4174   -1.2985   -0.6753 C   0  0  1  0  0  0
    0.5709    1.2143    1.7358 C   0  0  2  0  0  0
    3.0221    0.4934    1.5523 C   0  0  0  0  0  0
    1.6748    1.4487   -0.3257 C   0  0  0  0  0  0
   -0.1401   -1.0531   -0.2436 C   0  0  0  0  0  0
    2.4802   -0.3168   -1.8867 C   0  0  0  0  0  0
    4.1386   -0.0869    0.6651 C   0  0  0  0  0  0
    2.1432    1.1519   -1.6165 C   0  0  0  0  0  0
   -0.8072    0.7071    1.4480 C   0  0  0  0  0  0
   -1.1412   -0.2939    0.5770 C   0  0  0  0  0  0
    4.8061   -2.0495   -0.7088 C   0  0  0  0  0  0
    1.1136    2.6413    0.0927 C   0  0  0  0  0  0
    5.8709   -2.6266    0.2054 C   0  0  0  0  0  0
    7.1436   -3.1897   -0.3853 C   0  0  0  0  0  0
    7.1897   -1.9179    0.4222 C   0  0  0  0  0  0
   -2.5712   -0.4288    0.6299 C   0  0  0  0  0  0
    2.1161    2.2194   -2.5388 C   0  0  0  0  0  0
    1.1057    3.6968   -0.8413 C   0  0  0  0  0  0
   -3.0672    0.5260    1.5670 C   0  0  0  0  0  0
    1.6212    3.4880   -2.1449 C   0  0  0  0  0  0
   -3.5187   -1.2593   -0.0132 C   0  0  0  0  0  0
   -4.4386    0.6458    1.8516 C   0  0  0  0  0  0
   -4.9007   -1.1442    0.2534 C   0  0  0  0  0  0
   -5.3558   -0.1956    1.1964 C   0  0  0  0  0  0
   -6.4791   -1.5377   -1.3951 C   0  0  0  0  0  0
    2.2097   -2.2990   -1.0583 H   0  0  0  0  0  0
    0.7870    1.0966    2.7983 H   0  0  0  0  0  0
    2.9584   -0.0928    2.4698 H   0  0  0  0  0  0
    3.2980    1.5007    1.8673 H   0  0  0  0  0  0
   -0.4274   -2.1017   -0.3352 H   0  0  0  0  0  0
   -0.1726   -0.6570   -1.2579 H   0  0  0  0  0  0
    1.7562   -0.6529   -2.6295 H   0  0  0  0  0  0
    3.4422   -0.3668   -2.3950 H   0  0  0  0  0  0
    4.4203    0.6229   -0.1133 H   0  0  0  0  0  0
    5.0295   -0.2345    1.2753 H   0  0  0  0  0  0
    5.2623   -1.3659   -1.4259 H   0  0  0  0  0  0
    4.3897   -2.8784   -1.2823 H   0  0  0  0  0  0
    5.4721   -3.1855    1.0503 H   0  0  0  0  0  0
    0.6166   -1.6829    1.9854 H   0  0  0  0  0  0
    7.2866   -3.1051   -1.4609 H   0  0  0  0  0  0
    7.5545   -4.0888    0.0698 H   0  0  0  0  0  0
    7.6286   -1.9687    1.4167 H   0  0  0  0  0  0
    7.3632   -0.9880   -0.1160 H   0  0  0  0  0  0
   -1.9542    1.9459    2.7194 H   0  0  0  0  0  0
    2.4494    2.0644   -3.5544 H   0  0  0  0  0  0
    1.6027    4.2962   -2.8615 H   0  0  0  0  0  0
   -3.1742   -1.9946   -0.7256 H   0  0  0  0  0  0
   -4.7860    1.3743    2.5690 H   0  0  0  0  0  0
    0.2588    4.9198    0.3935 H   0  0  0  0  0  0
   -6.4106   -0.1117    1.4156 H   0  0  0  0  0  0
   -7.9410   -2.0265   -2.8434 H   0  0  0  0  0  0
   -7.5691   -3.2916   -1.7961 H   0  0  0  0  0  0
   -6.9211    0.0783   -2.6971 H   0  0  0  0  0  0
   -5.7574    0.4381   -1.5330 H   0  0  0  0  0  0
    3.7232   -1.3766    0.0527 N   0  3  2  0  0  0
    3.5217   -1.9919    0.8294 H   0  0  0  0  0  0
  1 11  1  0  0  0
  1 21  1  0  0  0
  2  9  1  0  0  0
  2 48  1  0  0  0
  3 27  1  0  0  0
  3 58  1  0  0  0
  4 18  1  0  0  0
  4 28  1  0  0  0
  4 53  1  0  0  0
  5 32  1  0  0  0
  5 34  2  0  0  0
  6 34  1  0  0  0
  6 60  1  0  0  0
  6 61  1  0  0  0
  7 34  1  0  0  0
  7 62  1  0  0  0
  7 63  1  0  0  0
  8  9  1  0  0  0
  8 11  1  0  0  0
  8 12  1  0  0  0
  8 13  1  0  0  0
  9 10  1  0  0  0
  9 14  1  0  0  0
 10 15  1  0  0  0
 10 35  1  0  0  0
 10 64  1  0  0  0
 11 18  1  0  0  0
 11 36  1  0  0  0
 12 16  1  0  0  0
 12 37  1  0  0  0
 12 38  1  0  0  0
 13 17  2  0  0  0
 13 21  1  0  0  0
 14 19  1  0  0  0
 14 39  1  0  0  0
 14 40  1  0  0  0
 15 17  1  0  0  0
 15 41  1  0  0  0
 15 42  1  0  0  0
 16 43  1  0  0  0
 16 44  1  0  0  0
 16 64  1  0  0  0
 17 26  1  0  0  0
 18 19  2  0  0  0
 19 25  1  0  0  0
 20 22  1  0  0  0
 20 45  1  0  0  0
 20 46  1  0  0  0
 20 64  1  0  0  0
 21 27  2  0  0  0
 22 23  1  0  0  0
 22 24  1  0  0  0
 22 47  1  0  0  0
 23 24  1  0  0  0
 23 49  1  0  0  0
 23 50  1  0  0  0
 24 51  1  0  0  0
 24 52  1  0  0  0
 25 28  2  0  0  0
 25 30  1  0  0  0
 26 29  2  0  0  0
 26 54  1  0  0  0
 27 29  1  0  0  0
 28 31  1  0  0  0
 29 55  1  0  0  0
 30 32  2  0  0  0
 30 56  1  0  0  0
 31 33  2  0  0  0
 31 57  1  0  0  0
 32 33  1  0  0  0
 33 59  1  0  0  0
 64 65  1  0  0  0
M  CHG  1  64   1
M  END
> <LID>
L024034

> <PC_CID>
9826034

> <Names>


> <CAS_Numbers>


$$$$
129713
                    3D
 Structure written by MMmdl.
 53 55  0  0  1  0            999 V2000
    4.5275   -1.8852   -2.2360 Cl  0  0  0  0  0  0
    5.7561    1.0510   -2.4484 Cl  0  0  0  0  0  0
    1.9156    3.1627    3.8525 S   0  0  0  0  0  0
   -0.2502   -1.9108    0.6149 O   0  0  0  0  0  0
   -0.8104    0.1607   -0.1304 N   0  0  0  0  0  0
    2.5280    2.5698    1.1739 N   0  0  0  0  0  0
   -3.0564   -1.0387   -0.3301 C   0  0  2  0  0  0
   -1.8896   -0.2960   -1.0407 C   0  0  2  0  0  0
   -4.1849   -1.3533   -1.3455 C   0  0  0  0  0  0
   -1.3486   -1.1198   -2.2311 C   0  0  0  0  0  0
   -3.6425   -2.1666   -2.5337 C   0  0  0  0  0  0
   -2.4735   -1.4469   -3.2267 C   0  0  0  0  0  0
   -4.3072   -1.1157    1.8512 C   0  0  0  0  0  0
   -4.1940    0.9901    0.6960 C   0  0  0  0  0  0
   -5.1932   -0.1107    2.5837 C   0  0  0  0  0  0
   -5.4915    0.9254    1.5060 C   0  0  0  0  0  0
   -0.5998    1.6148   -0.0900 C   0  0  0  0  0  0
   -0.0352   -0.6996    0.5833 C   0  0  0  0  0  0
    1.1753   -0.1790    1.3806 C   0  0  0  0  0  0
    2.3519    0.1784    0.4672 C   0  0  0  0  0  0
    2.9274    1.4816    0.3959 C   0  0  0  0  0  0
    2.8817   -0.8477   -0.3499 C   0  0  0  0  0  0
    3.9690    1.7245   -0.5249 C   0  0  0  0  0  0
    3.9310   -0.5965   -1.2520 C   0  0  0  0  0  0
    4.4734    0.6996   -1.3454 C   0  0  0  0  0  0
    2.2926    2.7882    2.3508 C   0  0  0  0  0  0
   -2.6815   -2.0005    0.0204 H   0  0  0  0  0  0
   -2.3369    0.5857   -1.4998 H   0  0  0  0  0  0
   -4.9915   -1.9152   -0.8763 H   0  0  0  0  0  0
   -4.6348   -0.4385   -1.7295 H   0  0  0  0  0  0
   -0.8976   -2.0511   -1.8881 H   0  0  0  0  0  0
   -0.5600   -0.5653   -2.7414 H   0  0  0  0  0  0
   -3.3121   -3.1462   -2.1855 H   0  0  0  0  0  0
   -4.4417   -2.3500   -3.2526 H   0  0  0  0  0  0
   -2.8333   -0.5270   -3.6894 H   0  0  0  0  0  0
   -2.0840   -2.0657   -4.0357 H   0  0  0  0  0  0
   -4.9383   -1.8363    1.3321 H   0  0  0  0  0  0
   -3.6613   -1.6734    2.5301 H   0  0  0  0  0  0
   -3.5420    1.7647    1.1012 H   0  0  0  0  0  0
   -4.3813    1.2491   -0.3450 H   0  0  0  0  0  0
   -4.6382    0.3519    3.4011 H   0  0  0  0  0  0
   -6.0938   -0.5633    3.0000 H   0  0  0  0  0  0
   -6.3045    0.5702    0.8712 H   0  0  0  0  0  0
   -5.7841    1.8929    1.9153 H   0  0  0  0  0  0
   -0.4751    1.9794    0.9292 H   0  0  0  0  0  0
    0.2846    1.8847   -0.6670 H   0  0  0  0  0  0
   -1.4332    2.1849   -0.4998 H   0  0  0  0  0  0
    0.8555    0.6234    2.0358 H   0  0  0  0  0  0
    1.5138   -0.9684    2.0531 H   0  0  0  0  0  0
    2.4696   -1.8451   -0.2960 H   0  0  0  0  0  0
    4.3998    2.7130   -0.5963 H   0  0  0  0  0  0
   -3.5132   -0.3148    0.8909 N   0  3  0  0  0  0
   -2.6657   -0.0878    1.3913 H   0  0  0  0  0  0
  1 24  1  0  0  0
  2 25  1  0  0  0
  3 26  2  0  0  0
  4 18  2  0  0  0
  5  8  1  0  0  0
  5 17  1  0  0  0
  5 18  1  0  0  0
  6 21  1  0  0  0
  6 26  2  0  0  0
  7  8  1  0  0  0
  7  9  1  0  0  0
  7 27  1  0  0  0
  7 52  1  0  0  0
  8 10  1  0  0  0
  8 28  1  0  0  0
  9 11  1  0  0  0
  9 29  1  0  0  0
  9 30  1  0  0  0
 10 12  1  0  0  0
 10 31  1  0  0  0
 10 32  1  0  0  0
 11 12  1  0  0  0
 11 33  1  0  0  0
 11 34  1  0  0  0
 12 35  1  0  0  0
 12 36  1  0  0  0
 13 15  1  0  0  0
 13 37  1  0  0  0
 13 38  1  0  0  0
 13 52  1  0  0  0
 14 16  1  0  0  0
 14 39  1  0  0  0
 14 40  1  0  0  0
 14 52  1  0  0  0
 15 16  1  0  0  0
 15 41  1  0  0  0
 15 42  1  0  0  0
 16 43  1  0  0  0
 16 44  1  0  0  0
 17 45  1  0  0  0
 17 46  1  0  0  0
 17 47  1  0  0  0
 18 19  1  0  0  0
 19 20  1  0  0  0
 19 48  1  0  0  0
 19 49  1  0  0  0
 20 21  1  0  0  0
 20 22  2  0  0  0
 21 23  2  0  0  0
 22 24  1  0  0  0
 22 50  1  0  0  0
 23 25  1  0  0  0
 23 51  1  0  0  0
 24 25  2  0  0  0
 52 53  1  0  0  0
M  CHG  1  52   1
M  END
> <LID>
L000616

> <PC_CID>
129713

> <Names>
2-isothiocyanato-4,5-dichloro-N-methyl-N-(2-(1-pyrrolidinyl)cyclohexyl)benzeneacetamide

> <CAS_Numbers>
122407-13-0

$$$$
5462348
                    3D
 Structure written by MMmdl.
 43 46  0  0  1  0            999 V2000
    2.4949    6.2191   -0.6187 O   0  0  0  0  0  0
    7.1800    7.0831    0.7754 C   0  0  2  0  0  0
    8.5049    7.6837    0.2290 C   0  0  2  0  0  0
    8.2341    9.1528   -0.1672 C   0  0  1  0  0  0
    6.9100    7.7819    2.1385 C   0  0  0  0  0  0
    7.4129    5.5617    0.9594 C   0  0  0  0  0  0
    9.2257    6.8167   -0.8425 C   0  0  0  0  0  0
    5.9758    7.3752   -0.1526 C   0  0  0  0  0  0
    7.3045    9.1858   -1.3887 C   0  0  0  0  0  0
    7.5203    9.2033    2.2541 C   0  0  0  0  0  0
    7.6845    4.8230   -0.3696 C   0  0  0  0  0  0
    8.3472    5.7080   -1.4453 C   0  0  0  0  0  0
    6.0412    8.3704   -1.1665 C   0  0  0  0  0  0
    4.7626    6.6672    0.0218 C   0  0  0  0  0  0
    8.0935   11.2961    1.0814 C   0  0  0  0  0  0
    4.9255    8.6163   -1.9932 C   0  0  0  0  0  0
    3.6512    6.9189   -0.8042 C   0  0  0  0  0  0
    3.7336    7.8918   -1.8161 C   0  0  0  0  0  0
    9.2301    7.6987    1.0448 H   0  0  0  0  0  0
    9.1842    9.6258   -0.4217 H   0  0  0  0  0  0
    5.8396    7.8129    2.3463 H   0  0  0  0  0  0
    7.3343    7.1891    2.9499 H   0  0  0  0  0  0
    8.2786    5.4213    1.6087 H   0  0  0  0  0  0
    6.5874    5.0844    1.4868 H   0  0  0  0  0  0
    9.6429    7.4399   -1.6338 H   0  0  0  0  0  0
   10.0872    6.3351   -0.3774 H   0  0  0  0  0  0
    7.0372   10.2151   -1.6317 H   0  0  0  0  0  0
    7.8129    8.7913   -2.2686 H   0  0  0  0  0  0
    8.5297    9.1420    2.6644 H   0  0  0  0  0  0
    6.9412    9.7893    2.9689 H   0  0  0  0  0  0
    8.3139    3.9562   -0.1653 H   0  0  0  0  0  0
    6.7515    4.4251   -0.7704 H   0  0  0  0  0  0
    7.5754    6.1629   -2.0658 H   0  0  0  0  0  0
    8.9348    5.0882   -2.1232 H   0  0  0  0  0  0
    4.6692    5.9232    0.7982 H   0  0  0  0  0  0
    7.5079   11.8566    1.8110 H   0  0  0  0  0  0
    9.1349   11.2965    1.4060 H   0  0  0  0  0  0
    8.0309   11.8247    0.1296 H   0  0  0  0  0  0
    4.9803    9.3663   -2.7688 H   0  0  0  0  0  0
    2.8852    8.0899   -2.4548 H   0  0  0  0  0  0
    1.8121    6.4584   -1.2265 H   0  0  0  0  0  0
    7.5804    9.9146    0.9475 N   0  3  1  0  0  0
    6.6144   10.0025    0.6638 H   0  0  0  0  0  0
  1 17  1  0  0  0
  1 41  1  0  0  0
  2  3  1  0  0  0
  2  5  1  0  0  0
  2  6  1  0  0  0
  2  8  1  0  0  0
  3  4  1  0  0  0
  3  7  1  0  0  0
  3 19  1  0  0  0
  4  9  1  0  0  0
  4 20  1  0  0  0
  4 42  1  0  0  0
  5 10  1  0  0  0
  5 21  1  0  0  0
  5 22  1  0  0  0
  6 11  1  0  0  0
  6 23  1  0  0  0
  6 24  1  0  0  0
  7 12  1  0  0  0
  7 25  1  0  0  0
  7 26  1  0  0  0
  8 13  2  0  0  0
  8 14  1  0  0  0
  9 13  1  0  0  0
  9 27  1  0  0  0
  9 28  1  0  0  0
 10 29  1  0  0  0
 10 30  1  0  0  0
 10 42  1  0  0  0
 11 12  1  0  0  0
 11 31  1  0  0  0
 11 32  1  0  0  0
 12 33  1  0  0  0
 12 34  1  0  0  0
 13 16  1  0  0  0
 14 17  2  0  0  0
 14 35  1  0  0  0
 15 36  1  0  0  0
 15 37  1  0  0  0
 15 38  1  0  0  0
 15 42  1  0  0  0
 16 18  2  0  0  0
 16 39  1  0  0  0
 17 18  1  0  0  0
 18 40  1  0  0  0
 42 43  1  0  0  0
M  CHG  1  42   1
M  END
> <LID>
L001335

> <PC_CID>
5462348

> <Names>
Levorphanol

> <CAS_Numbers>
5985-38-6;5985-51-3;6700-40-9

$$$$
408117
                    3D
 Structure written by MMmdl.
 59 61  0  0  1  0            999 V2000
   -0.2809    4.3293   -0.7354 O   0  0  0  0  0  0
   -0.8463    0.0190    1.8142 N   0  0  0  0  0  0
   -3.5466   -0.1472   -1.3536 N   0  0  0  0  0  0
    0.3235   -0.8468    1.8935 C   0  0  1  0  0  0
    1.4550   -0.3022    0.9966 C   0  0  0  0  0  0
    2.6567   -1.2512    0.8563 C   0  0  0  0  0  0
    3.7068   -0.7203   -0.1367 C   0  0  0  0  0  0
   -1.7456   -0.0383    0.8054 C   0  0  0  0  0  0
    0.7486   -1.0009    3.3620 C   0  0  0  0  0  0
    5.6043   -1.3862   -1.5694 C   0  0  0  0  0  0
    5.7053   -1.7923    0.8784 C   0  0  0  0  0  0
   -1.8348    1.0364   -0.1193 C   0  0  0  0  0  0
   -2.6056   -1.1585    0.6357 C   0  0  0  0  0  0
   -2.7578    0.9337   -1.1934 C   0  0  0  0  0  0
   -3.4930   -1.1689   -0.4758 C   0  0  0  0  0  0
    6.4642   -2.5811   -2.0087 C   0  0  0  0  0  0
    5.6325   -3.2078    1.4630 C   0  0  0  0  0  0
   -1.0238    2.1937   -0.0054 C   0  0  0  0  0  0
   -2.6224   -2.2439    1.5480 C   0  0  0  0  0  0
   -2.8435    1.9938   -2.1186 C   0  0  0  0  0  0
   -4.3467   -2.2777   -0.6596 C   0  0  0  0  0  0
   -1.1134    3.2488   -0.9329 C   0  0  0  0  0  0
   -2.0370    3.1394   -1.9975 C   0  0  0  0  0  0
   -3.4828   -3.3383    1.3495 C   0  0  0  0  0  0
   -4.3435   -3.3581    0.2404 C   0  0  0  0  0  0
   -0.3589    5.4099   -1.6538 C   0  0  0  0  0  0
    0.0474   -1.8311    1.5152 H   0  0  0  0  0  0
    1.0545   -0.1142   -0.0007 H   0  0  0  0  0  0
    1.7924    0.6647    1.3729 H   0  0  0  0  0  0
    3.1138   -1.4020    1.8332 H   0  0  0  0  0  0
    2.3060   -2.2289    0.5233 H   0  0  0  0  0  0
    3.2084   -0.5585   -1.0935 H   0  0  0  0  0  0
    4.0852    0.2527    0.1808 H   0  0  0  0  0  0
   -0.6251    0.9675    2.0796 H   0  0  0  0  0  0
    1.5561   -1.7235    3.4750 H   0  0  0  0  0  0
    1.0864   -0.0523    3.7808 H   0  0  0  0  0  0
   -0.0823   -1.3553    3.9730 H   0  0  0  0  0  0
    4.9123   -1.1645   -2.3829 H   0  0  0  0  0  0
    6.2199   -0.4950   -1.4376 H   0  0  0  0  0  0
    6.7430   -1.5546    0.6406 H   0  0  0  0  0  0
    5.4196   -1.0696    1.6439 H   0  0  0  0  0  0
    6.9642   -2.3667   -2.9535 H   0  0  0  0  0  0
    7.2386   -2.8200   -1.2799 H   0  0  0  0  0  0
    5.8543   -3.4732   -2.1546 H   0  0  0  0  0  0
    6.2683   -3.2952    2.3443 H   0  0  0  0  0  0
    4.6157   -3.4627    1.7628 H   0  0  0  0  0  0
    5.9656   -3.9530    0.7402 H   0  0  0  0  0  0
   -0.3108    2.2948    0.7991 H   0  0  0  0  0  0
   -1.9849   -2.2520    2.4189 H   0  0  0  0  0  0
   -3.5419    1.9278   -2.9402 H   0  0  0  0  0  0
   -5.0211   -2.2978   -1.5034 H   0  0  0  0  0  0
   -2.1461    3.9188   -2.7361 H   0  0  0  0  0  0
   -3.4841   -4.1600    2.0506 H   0  0  0  0  0  0
   -5.0069   -4.1959    0.0836 H   0  0  0  0  0  0
    0.3528    6.1820   -1.3619 H   0  0  0  0  0  0
   -0.1040    5.0925   -2.6658 H   0  0  0  0  0  0
   -1.3521    5.8611   -1.6554 H   0  0  0  0  0  0
    4.8389   -1.6656   -0.3260 N   0  3  0  0  0  0
    4.4137   -2.5705   -0.4701 H   0  0  0  0  0  0
  1 22  1  0  0  0
  1 26  1  0  0  0
  2  4  1  0  0  0
  2  8  1  0  0  0
  2 34  1  0  0  0
  3 14  2  0  0  0
  3 15  1  0  0  0
  4  5  1  0  0  0
  4  9  1  0  0  0
  4 27  1  0  0  0
  5  6  1  0  0  0
  5 28  1  0  0  0
  5 29  1  0  0  0
  6  7  1  0  0  0
  6 30  1  0  0  0
  6 31  1  0  0  0
  7 32  1  0  0  0
  7 33  1  0  0  0
  7 58  1  0  0  0
  8 12  2  0  0  0
  8 13  1  0  0  0
  9 35  1  0  0  0
  9 36  1  0  0  0
  9 37  1  0  0  0
 10 16  1  0  0  0
 10 38  1  0  0  0
 10 39  1  0  0  0
 10 58  1  0  0  0
 11 17  1  0  0  0
 11 40  1  0  0  0
 11 41  1  0  0  0
 11 58  1  0  0  0
 12 14  1  0  0  0
 12 18  1  0  0  0
 13 15  1  0  0  0
 13 19  2  0  0  0
 14 20  1  0  0  0
 15 21  2  0  0  0
 16 42  1  0  0  0
 16 43  1  0  0  0
 16 44  1  0  0  0
 17 45  1  0  0  0
 17 46  1  0  0  0
 17 47  1  0  0  0
 18 22  2  0  0  0
 18 48  1  0  0  0
 19 24  1  0  0  0
 19 49  1  0  0  0
 20 23  2  0  0  0
 20 50  1  0  0  0
 21 25  1  0  0  0
 21 51  1  0  0  0
 22 23  1  0  0  0
 23 52  1  0  0  0
 24 25  2  0  0  0
 24 53  1  0  0  0
 25 54  1  0  0  0
 26 55  1  0  0  0
 26 56  1  0  0  0
 26 57  1  0  0  0
 58 59  1  0  0  0
M  CHG  1  58   1
M  END
> <LID>
L001324

> <PC_CID>
408117

> <Names>
Morphine

> <CAS_Numbers>
23552-18-3

$$$$
5486827
                    3D
 Structure written by MMmdl.
 57 64  0  0  1  0            999 V2000
    0.9748    1.9149   -1.5501 O   0  0  0  0  0  0
   -0.6399   -2.2189   -0.6932 O   0  0  0  0  0  0
    3.2043    0.0372   -1.4282 O   0  0  0  0  0  0
    1.1872    4.5958   -0.3228 O   0  0  0  0  0  0
   -0.5364    0.2252   -0.7737 C   0  0  1  0  0  0
   -0.5706   -1.0535    0.1181 C   0  0  1  0  0  0
   -1.8831   -0.9616    0.9465 C   0  0  1  0  0  0
    0.7761    0.4900   -1.5807 C   0  0  2  0  0  0
   -1.7690    0.2432   -1.7140 C   0  0  0  0  0  0
   -0.5502    1.4375    0.1141 C   0  0  0  0  0  0
    0.7088   -1.2527    0.9879 C   0  0  0  0  0  0
   -1.9218    0.3046    1.8578 C   0  0  0  0  0  0
   -3.0993    0.1116   -0.9512 C   0  0  0  0  0  0
   -1.2552    1.5744    1.3217 C   0  0  0  0  0  0
   -4.3539   -1.2775    0.6850 C   0  0  0  0  0  0
    1.9525   -0.1363   -0.9055 C   0  0  0  0  0  0
    1.9529   -0.9067    0.2261 C   0  0  0  0  0  0
   -5.3675   -1.8973   -0.2590 C   0  0  0  0  0  0
    0.2977    2.3704   -0.4544 C   0  0  0  0  0  0
   -6.8023   -2.0684    0.1860 C   0  0  0  0  0  0
   -6.4646   -1.0683   -0.8898 C   0  0  0  0  0  0
   -1.1480    2.8307    1.9549 C   0  0  0  0  0  0
    3.3252   -1.2549    0.4593 C   0  0  0  0  0  0
    0.3824    3.6213    0.1892 C   0  0  0  0  0  0
    4.0645   -0.6477   -0.5917 C   0  0  0  0  0  0
   -0.3521    3.8527    1.3790 C   0  0  0  0  0  0
    4.0562   -2.0016    1.4125 C   0  0  0  0  0  0
    5.4595   -0.7615   -0.7120 C   0  0  0  0  0  0
    5.4588   -2.1280    1.3097 C   0  0  0  0  0  0
    6.1600   -1.5111    0.2522 C   0  0  0  0  0  0
   -1.9468   -1.8430    1.5867 H   0  0  0  0  0  0
    0.7059    0.1252   -2.6060 H   0  0  0  0  0  0
   -1.6918   -0.5708   -2.4358 H   0  0  0  0  0  0
   -1.7816    1.1593   -2.3062 H   0  0  0  0  0  0
    0.7619   -2.2704    1.3775 H   0  0  0  0  0  0
    0.6673   -0.6104    1.8668 H   0  0  0  0  0  0
   -1.4006    0.0678    2.7856 H   0  0  0  0  0  0
   -2.9380    0.5473    2.1656 H   0  0  0  0  0  0
   -3.3397    1.0396   -0.4315 H   0  0  0  0  0  0
   -3.9015   -0.0467   -1.6719 H   0  0  0  0  0  0
   -4.7602   -0.3624    1.1178 H   0  0  0  0  0  0
   -4.2082   -1.9790    1.5073 H   0  0  0  0  0  0
   -4.9722   -2.7184   -0.8547 H   0  0  0  0  0  0
   -0.4831   -2.9782   -0.1516 H   0  0  0  0  0  0
   -7.0826   -1.6776    1.1624 H   0  0  0  0  0  0
   -7.3181   -2.9774   -0.1173 H   0  0  0  0  0  0
   -6.7521   -1.3108   -1.9109 H   0  0  0  0  0  0
   -6.5200   -0.0131   -0.6290 H   0  0  0  0  0  0
   -1.6528    3.0076    2.8933 H   0  0  0  0  0  0
   -0.2755    4.8090    1.8756 H   0  0  0  0  0  0
    3.5346   -2.4799    2.2281 H   0  0  0  0  0  0
    5.9816   -0.2833   -1.5274 H   0  0  0  0  0  0
    1.6378    4.3169   -1.1056 H   0  0  0  0  0  0
    6.0004   -2.7022    2.0474 H   0  0  0  0  0  0
    7.2332   -1.6138    0.1824 H   0  0  0  0  0  0
   -3.0544   -1.0178    0.0147 N   0  3  2  0  0  0
   -2.8751   -1.8402   -0.5451 H   0  0  0  0  0  0
  1  8  1  0  0  0
  1 19  1  0  0  0
  2  6  1  0  0  0
  2 44  1  0  0  0
  3 16  1  0  0  0
  3 25  1  0  0  0
  4 24  1  0  0  0
  4 53  1  0  0  0
  5  6  1  0  0  0
  5  8  1  0  0  0
  5  9  1  0  0  0
  5 10  1  0  0  0
  6  7  1  0  0  0
  6 11  1  0  0  0
  7 12  1  0  0  0
  7 31  1  0  0  0
  7 56  1  0  0  0
  8 16  1  0  0  0
  8 32  1  0  0  0
  9 13  1  0  0  0
  9 33  1  0  0  0
  9 34  1  0  0  0
 10 14  2  0  0  0
 10 19  1  0  0  0
 11 17  1  0  0  0
 11 35  1  0  0  0
 11 36  1  0  0  0
 12 14  1  0  0  0
 12 37  1  0  0  0
 12 38  1  0  0  0
 13 39  1  0  0  0
 13 40  1  0  0  0
 13 56  1  0  0  0
 14 22  1  0  0  0
 15 18  1  0  0  0
 15 41  1  0  0  0
 15 42  1  0  0  0
 15 56  1  0  0  0
 16 17  2  0  0  0
 17 23  1  0  0  0
 18 20  1  0  0  0
 18 21  1  0  0  0
 18 43  1  0  0  0
 19 24  2  0  0  0
 20 21  1  0  0  0
 20 45  1  0  0  0
 20 46  1  0  0  0
 21 47  1  0  0  0
 21 48  1  0  0  0
 22 26  2  0  0  0
 22 49  1  0  0  0
 23 25  1  0  0  0
 23 27  2  0  0  0
 24 26  1  0  0  0
 25 28  2  0  0  0
 26 50  1  0  0  0
 27 29  1  0  0  0
 27 51  1  0  0  0
 28 30  1  0  0  0
 28 52  1  0  0  0
 29 30  2  0  0  0
 29 54  1  0  0  0
 30 55  1  0  0  0
 56 57  1  0  0  0
M  CHG  1  56   1
M  END
> <LID>
L024024

> <PC_CID>
5486827

> <Names>
naltrindole benzofuran

> <CAS_Numbers>
111555-58-9

$$$$
6858272
                    3D
 Structure written by MMmdl.
 67 73  0  0  1  0            999 V2000
   -2.5674    0.7721    1.1367 O   0  0  0  0  0  0
   -2.8328   -2.1540    0.7571 O   0  0  0  0  0  0
   -0.3643   -3.7829   -1.6190 O   0  0  0  0  0  0
   -4.1226    3.2110    0.5040 O   0  0  0  0  0  0
    0.4883   -0.1376   -0.4894 C   0  0  1  0  0  0
   -0.2248    0.5717    0.6771 C   0  0  1  0  0  0
   -1.7033   -1.4535    0.2308 C   0  0  1  0  0  0
   -1.4966   -0.1973    1.1390 C   0  0  2  0  0  0
    1.6881    0.7886   -0.8517 C   0  0  1  0  0  0
    0.8542   -1.5755   -0.0425 C   0  0  0  0  0  0
   -0.4252   -2.3700    0.3964 C   0  0  2  0  0  0
   -0.4804   -0.3442   -1.7018 C   0  0  0  0  0  0
   -1.8067   -1.0030   -1.2510 C   0  0  0  0  0  0
    0.7205    0.8164    1.8850 C   0  0  0  0  0  0
   -0.7816    1.8529    0.1577 C   0  0  0  0  0  0
    1.2237    2.2315   -1.2674 C   0  0  0  0  0  0
    2.0469    1.4888    1.4996 C   0  0  0  0  0  0
   -0.1000    2.7500   -0.6797 C   0  0  0  0  0  0
   -0.4388   -3.8242   -0.2067 C   0  0  0  0  0  0
   -2.1066    1.9086    0.5331 C   0  0  0  0  0  0
    3.9843    1.3691   -0.0541 C   0  0  0  0  0  0
    5.0702    0.7787    0.8267 C   0  0  0  0  0  0
   -0.8233    3.9050   -1.0460 C   0  0  0  0  0  0
    0.7963   -4.6185    0.2711 C   0  0  0  0  0  0
   -1.6925   -4.6538    0.1330 C   0  0  0  0  0  0
   -2.8106    3.0714    0.1596 C   0  0  0  0  0  0
    6.5143    0.8261    0.3831 C   0  0  0  0  0  0
    5.7843   -0.4933    0.4307 C   0  0  0  0  0  0
   -4.1255   -1.7999    0.2813 C   0  0  0  0  0  0
   -2.1593    4.0767   -0.6005 C   0  0  0  0  0  0
   -1.3881   -0.5349    2.1709 H   0  0  0  0  0  0
    2.2209    0.3377   -1.6903 H   0  0  0  0  0  0
    1.5796   -1.5844    0.7701 H   0  0  0  0  0  0
    1.3674   -2.0633   -0.8710 H   0  0  0  0  0  0
   -0.3336   -2.5214    1.4733 H   0  0  0  0  0  0
    0.0011   -0.9732   -2.4517 H   0  0  0  0  0  0
   -0.7091    0.5829   -2.2257 H   0  0  0  0  0  0
   -2.6158   -0.2822   -1.3714 H   0  0  0  0  0  0
   -2.0558   -1.8389   -1.9038 H   0  0  0  0  0  0
    0.2150    1.4137    2.6451 H   0  0  0  0  0  0
    0.9476   -0.1328    2.3706 H   0  0  0  0  0  0
    2.0015    2.9746   -1.0943 H   0  0  0  0  0  0
    1.0791    2.2310   -2.3482 H   0  0  0  0  0  0
    2.7341    1.4220    2.3426 H   0  0  0  0  0  0
    1.8941    2.5537    1.3223 H   0  0  0  0  0  0
    4.0048    2.4563    0.0306 H   0  0  0  0  0  0
    4.2242    1.1331   -1.0919 H   0  0  0  0  0  0
    4.9178    0.9328    1.8928 H   0  0  0  0  0  0
   -0.3780    4.6363   -1.7044 H   0  0  0  0  0  0
    0.8028   -5.6311   -0.1343 H   0  0  0  0  0  0
    1.7356   -4.1550   -0.0292 H   0  0  0  0  0  0
    0.8089   -4.7062    1.3580 H   0  0  0  0  0  0
   -1.5793   -5.6933   -0.1770 H   0  0  0  0  0  0
   -1.8885   -4.6549    1.2056 H   0  0  0  0  0  0
   -2.5807   -4.2812   -0.3767 H   0  0  0  0  0  0
    7.2687    1.0106    1.1454 H   0  0  0  0  0  0
    6.7330    1.2427   -0.5984 H   0  0  0  0  0  0
    5.5175   -0.9534   -0.5189 H   0  0  0  0  0  0
    6.0511   -1.1874    1.2252 H   0  0  0  0  0  0
   -0.3682   -4.6693   -1.9467 H   0  0  0  0  0  0
   -4.8741   -2.3645    0.8365 H   0  0  0  0  0  0
   -4.3486   -0.7427    0.4137 H   0  0  0  0  0  0
   -4.2449   -2.0551   -0.7717 H   0  0  0  0  0  0
   -2.7072    4.9594   -0.8965 H   0  0  0  0  0  0
   -4.4459    2.4725    0.9976 H   0  0  0  0  0  0
    2.6403    0.8440    0.2989 N   0  3  2  0  0  0
    2.7974   -0.1226    0.5463 H   0  0  0  0  0  0
  1  8  1  0  0  0
  1 20  1  0  0  0
  2  7  1  0  0  0
  2 29  1  0  0  0
  3 19  1  0  0  0
  3 60  1  0  0  0
  4 26  1  0  0  0
  4 65  1  0  0  0
  5  6  1  0  0  0
  5  9  1  0  0  0
  5 10  1  0  0  0
  5 12  1  0  0  0
  6  8  1  0  0  0
  6 14  1  0  0  0
  6 15  1  0  0  0
  7  8  1  0  0  0
  7 11  1  0  0  0
  7 13  1  0  0  0
  8 31  1  0  0  0
  9 16  1  0  0  0
  9 32  1  0  0  0
  9 66  1  0  0  0
 10 11  1  0  0  0
 10 33  1  0  0  0
 10 34  1  0  0  0
 11 19  1  0  0  0
 11 35  1  0  0  0
 12 13  1  0  0  0
 12 36  1  0  0  0
 12 37  1  0  0  0
 13 38  1  0  0  0
 13 39  1  0  0  0
 14 17  1  0  0  0
 14 40  1  0  0  0
 14 41  1  0  0  0
 15 18  2  0  0  0
 15 20  1  0  0  0
 16 18  1  0  0  0
 16 42  1  0  0  0
 16 43  1  0  0  0
 17 44  1  0  0  0
 17 45  1  0  0  0
 17 66  1  0  0  0
 18 23  1  0  0  0
 19 24  1  0  0  0
 19 25  1  0  0  0
 20 26  2  0  0  0
 21 22  1  0  0  0
 21 46  1  0  0  0
 21 47  1  0  0  0
 21 66  1  0  0  0
 22 27  1  0  0  0
 22 28  1  0  0  0
 22 48  1  0  0  0
 23 30  2  0  0  0
 23 49  1  0  0  0
 24 50  1  0  0  0
 24 51  1  0  0  0
 24 52  1  0  0  0
 25 53  1  0  0  0
 25 54  1  0  0  0
 25 55  1  0  0  0
 26 30  1  0  0  0
 27 28  1  0  0  0
 27 56  1  0  0  0
 27 57  1  0  0  0
 28 58  1  0  0  0
 28 59  1  0  0  0
 29 61  1  0  0  0
 29 62  1  0  0  0
 29 63  1  0  0  0
 30 64  1  0  0  0
 66 67  1  0  0  0
M  CHG  1  66   1
M  END
> <LID>
L024020

> <PC_CID>
6858272

> <Names>
[3H]Diprenorphine

> <CAS_Numbers>


$$$$
40400
                    3D
 Structure written by MMmdl.
 76 82  0  0  1  0            999 V2000
    3.4988   -6.5424   -3.9384 O   0  0  0  0  0  0
    0.4811   -7.3236   -4.5225 O   0  0  0  0  0  0
    3.1699   -8.8871   -1.8928 O   0  0  0  0  0  0
    6.1997   -7.7419   -3.7288 O   0  0  0  0  0  0
    1.5941   -5.2709   -1.1744 C   0  0  1  0  0  0
    2.6274   -5.0218   -2.2940 C   0  0  2  0  0  0
    0.9898   -6.6447   -3.3696 C   0  0  1  0  0  0
    2.3023   -5.8164   -3.5926 C   0  0  2  0  0  0
    1.0797   -7.6352   -2.1450 C   0  0  2  0  0  0
    1.4606   -6.7969   -0.8712 C   0  0  0  0  0  0
    2.1279   -4.4656    0.0503 C   0  0  1  0  0  0
    0.1878   -4.8622   -1.6800 C   0  0  0  0  0  0
   -0.1196   -5.6042   -3.0045 C   0  0  0  0  0  0
    2.7754   -3.5075   -2.6117 C   0  0  0  0  0  0
    3.9336   -5.6027   -1.8768 C   0  0  0  0  0  0
    3.5668   -4.9220    0.4873 C   0  0  0  0  0  0
    1.8206   -9.0445   -2.2852 C   0  0  2  0  0  0
    3.0298   -2.6407   -1.3682 C   0  0  0  0  0  0
    4.5007   -5.4797   -0.5995 C   0  0  0  0  0  0
    4.4005   -6.3687   -2.9243 C   0  0  0  0  0  0
    2.2160   -2.1226    0.9219 C   0  0  0  0  0  0
    1.2036  -10.1993   -1.3773 C   0  0  0  0  0  0
    1.6420   -0.7420    0.6626 C   0  0  0  0  0  0
    1.9650   -9.5287   -3.7520 C   0  0  0  0  0  0
    5.7630   -6.0881   -0.4361 C   0  0  0  0  0  0
    5.6652   -6.9665   -2.7420 C   0  0  0  0  0  0
    1.8297    0.3544    1.6866 C   0  0  0  0  0  0
    2.5384    0.4382    0.3591 C   0  0  0  0  0  0
    0.6143   -6.7074   -5.7972 C   0  0  0  0  0  0
    6.3546   -6.7966   -1.5134 C   0  0  0  0  0  0
   -0.2070  -10.6262   -1.8550 C   0  0  0  0  0  0
    2.0750  -11.4851   -1.3888 C   0  0  0  0  0  0
    1.0762   -9.7808    0.1053 C   0  0  0  0  0  0
    2.1391   -5.1063   -4.4036 H   0  0  0  0  0  0
    0.0371   -7.9041   -1.9951 H   0  0  0  0  0  0
    2.3579   -7.1749   -0.3894 H   0  0  0  0  0  0
    0.6881   -6.9202   -0.1128 H   0  0  0  0  0  0
    1.4444   -4.6251    0.8855 H   0  0  0  0  0  0
    0.0940   -3.7880   -1.8347 H   0  0  0  0  0  0
   -0.5662   -5.1110   -0.9319 H   0  0  0  0  0  0
   -1.0921   -6.0930   -2.9304 H   0  0  0  0  0  0
   -0.2259   -4.8644   -3.7977 H   0  0  0  0  0  0
    3.5764   -3.3494   -3.3354 H   0  0  0  0  0  0
    1.8710   -3.1456   -3.1011 H   0  0  0  0  0  0
    3.4491   -5.7314    1.2085 H   0  0  0  0  0  0
    4.0937   -4.1415    1.0345 H   0  0  0  0  0  0
    2.8984   -1.5926   -1.6370 H   0  0  0  0  0  0
    4.0644   -2.7393   -1.0387 H   0  0  0  0  0  0
    3.2528   -2.0379    1.2495 H   0  0  0  0  0  0
    1.6560   -2.5529    1.7529 H   0  0  0  0  0  0
    0.6676   -0.7526    0.1771 H   0  0  0  0  0  0
    1.0015   -9.7289   -4.2183 H   0  0  0  0  0  0
    2.5582  -10.4370   -3.8399 H   0  0  0  0  0  0
    2.4802   -8.7992   -4.3745 H   0  0  0  0  0  0
    6.2588   -6.0560    0.5230 H   0  0  0  0  0  0
    3.5842   -8.2796   -2.4877 H   0  0  0  0  0  0
    2.4349    0.1335    2.5639 H   0  0  0  0  0  0
    0.9963    1.0337    1.8549 H   0  0  0  0  0  0
    2.1765    1.1710   -0.3594 H   0  0  0  0  0  0
    3.6141    0.2731    0.3534 H   0  0  0  0  0  0
    0.1745   -5.7113   -5.8288 H   0  0  0  0  0  0
    1.6594   -6.6449   -6.1014 H   0  0  0  0  0  0
    0.0995   -7.3163   -6.5400 H   0  0  0  0  0  0
    7.3153   -7.2685   -1.3682 H   0  0  0  0  0  0
   -0.6163  -11.4037   -1.2088 H   0  0  0  0  0  0
   -0.9266   -9.8096   -1.8449 H   0  0  0  0  0  0
   -0.1937  -11.0413   -2.8621 H   0  0  0  0  0  0
    1.6684  -12.2416   -0.7166 H   0  0  0  0  0  0
    2.1198  -11.9547   -2.3701 H   0  0  0  0  0  0
    3.0975  -11.2976   -1.0607 H   0  0  0  0  0  0
    2.0127   -9.3872    0.5006 H   0  0  0  0  0  0
    0.7977  -10.6271    0.7343 H   0  0  0  0  0  0
    0.2972   -9.0357    0.2522 H   0  0  0  0  0  0
    7.0387   -8.1116   -3.5004 H   0  0  0  0  0  0
    2.1006   -3.0051   -0.2673 N   0  3  2  0  0  0
    1.1701   -2.8389   -0.6231 H   0  0  0  0  0  0
  1  8  1  0  0  0
  1 20  1  0  0  0
  2  7  1  0  0  0
  2 29  1  0  0  0
  3 17  1  0  0  0
  3 56  1  0  0  0
  4 26  1  0  0  0
  4 74  1  0  0  0
  5  6  1  0  0  0
  5 10  1  0  0  0
  5 11  1  0  0  0
  5 12  1  0  0  0
  6  8  1  0  0  0
  6 14  1  0  0  0
  6 15  1  0  0  0
  7  8  1  0  0  0
  7  9  1  0  0  0
  7 13  1  0  0  0
  8 34  1  0  0  0
  9 10  1  0  0  0
  9 17  1  0  0  0
  9 35  1  0  0  0
 10 36  1  0  0  0
 10 37  1  0  0  0
 11 16  1  0  0  0
 11 38  1  0  0  0
 11 75  1  0  0  0
 12 13  1  0  0  0
 12 39  1  0  0  0
 12 40  1  0  0  0
 13 41  1  0  0  0
 13 42  1  0  0  0
 14 18  1  0  0  0
 14 43  1  0  0  0
 14 44  1  0  0  0
 15 19  2  0  0  0
 15 20  1  0  0  0
 16 19  1  0  0  0
 16 45  1  0  0  0
 16 46  1  0  0  0
 17 22  1  0  0  0
 17 24  1  0  0  0
 18 47  1  0  0  0
 18 48  1  0  0  0
 18 75  1  0  0  0
 19 25  1  0  0  0
 20 26  2  0  0  0
 21 23  1  0  0  0
 21 49  1  0  0  0
 21 50  1  0  0  0
 21 75  1  0  0  0
 22 31  1  0  0  0
 22 32  1  0  0  0
 22 33  1  0  0  0
 23 27  1  0  0  0
 23 28  1  0  0  0
 23 51  1  0  0  0
 24 52  1  0  0  0
 24 53  1  0  0  0
 24 54  1  0  0  0
 25 30  2  0  0  0
 25 55  1  0  0  0
 26 30  1  0  0  0
 27 28  1  0  0  0
 27 57  1  0  0  0
 27 58  1  0  0  0
 28 59  1  0  0  0
 28 60  1  0  0  0
 29 61  1  0  0  0
 29 62  1  0  0  0
 29 63  1  0  0  0
 30 64  1  0  0  0
 31 65  1  0  0  0
 31 66  1  0  0  0
 31 67  1  0  0  0
 32 68  1  0  0  0
 32 69  1  0  0  0
 32 70  1  0  0  0
 33 71  1  0  0  0
 33 72  1  0  0  0
 33 73  1  0  0  0
 75 76  1  0  0  0
M  CHG  1  75   1
M  END
> <LID>
L001234

> <PC_CID>
40400

> <Names>
Buprenorphine

> <CAS_Numbers>
52485-79-7;53152-21-9

$$$$
6438353
                    3D
 Structure written by MMmdl.
 60 66  0  0  1  0            999 V2000
    0.5646    2.3194   -1.3627 O   0  0  0  0  0  0
   -0.5433   -1.9592   -0.3769 O   0  0  0  0  0  0
    2.8327    1.3238   -0.2739 O   0  0  0  0  0  0
    0.0616    5.1097   -0.4841 O   0  0  0  0  0  0
   -0.7357    0.4716   -0.6363 C   0  0  2  0  0  0
   -0.7799   -0.7414    0.3192 C   0  0  1  0  0  0
   -2.2204   -0.7868    0.8986 C   0  0  1  0  0  0
   -1.7363    0.2315   -1.7974 C   0  0  0  0  0  0
    0.6638    0.8896   -1.1872 C   0  0  2  0  0  0
   -1.1258    1.7283    0.0842 C   0  0  0  0  0  0
    0.3369   -0.6533    1.3819 C   0  0  0  0  0  0
   -3.1680   -0.0350   -1.2916 C   0  0  0  0  0  0
   -2.5852    0.5107    1.6849 C   0  0  0  0  0  0
   -2.0602    1.8353    1.1256 C   0  0  0  0  0  0
   -4.5491   -1.4272    0.2418 C   0  0  0  0  0  0
   -5.2394   -2.3725   -0.7247 C   0  0  0  0  0  0
   -0.3719    2.7488   -0.4621 C   0  0  0  0  0  0
    1.8366    0.6021   -0.2218 C   0  0  0  0  0  0
    1.7127   -0.5201    0.7401 C   0  0  0  0  0  0
   -6.4269   -3.1879   -0.2669 C   0  0  0  0  0  0
   -5.1157   -3.8708   -0.5675 C   0  0  0  0  0  0
   -2.3005    3.1435    1.5971 C   0  0  0  0  0  0
   -0.6348    4.0488    0.0146 C   0  0  0  0  0  0
   -1.6067    4.2428    1.0291 C   0  0  0  0  0  0
    2.7467   -1.3210    1.0898 C   0  0  0  0  0  0
    4.1129   -1.4038    0.5364 C   0  0  0  0  0  0
    5.1893   -1.6054    1.4267 C   0  0  0  0  0  0
    4.3834   -1.2921   -0.8473 C   0  0  0  0  0  0
    6.5117   -1.6861    0.9486 C   0  0  0  0  0  0
    5.7049   -1.3726   -1.3278 C   0  0  0  0  0  0
    6.7706   -1.5683   -0.4297 C   0  0  0  0  0  0
   -2.2861   -1.6300    1.5883 H   0  0  0  0  0  0
   -1.4064   -0.6123   -2.4045 H   0  0  0  0  0  0
   -1.7485    1.0870   -2.4743 H   0  0  0  0  0  0
    0.8775    0.3969   -2.1359 H   0  0  0  0  0  0
    0.3076   -1.5285    2.0327 H   0  0  0  0  0  0
    0.1920    0.2076    2.0352 H   0  0  0  0  0  0
   -3.6239    0.8872   -0.9302 H   0  0  0  0  0  0
   -3.7807   -0.3620   -2.1311 H   0  0  0  0  0  0
   -2.1655    0.4262    2.6877 H   0  0  0  0  0  0
   -3.6609    0.5952    1.8361 H   0  0  0  0  0  0
   -5.1595   -0.5318    0.3665 H   0  0  0  0  0  0
   -4.5044   -1.9125    1.2179 H   0  0  0  0  0  0
   -5.3122   -1.9998   -1.7442 H   0  0  0  0  0  0
   -7.2414   -3.3310   -0.9742 H   0  0  0  0  0  0
   -6.7250   -3.1130    0.7772 H   0  0  0  0  0  0
   -4.5426   -4.2495    0.2767 H   0  0  0  0  0  0
   -5.0560   -4.4675   -1.4755 H   0  0  0  0  0  0
   -0.4355   -2.6566    0.2529 H   0  0  0  0  0  0
   -2.9980    3.3073    2.4054 H   0  0  0  0  0  0
   -1.7976    5.2391    1.4003 H   0  0  0  0  0  0
    2.5398   -2.0783    1.8320 H   0  0  0  0  0  0
    0.6976    4.8504   -1.1338 H   0  0  0  0  0  0
    5.0039   -1.6945    2.4874 H   0  0  0  0  0  0
    3.5782   -1.1539   -1.5533 H   0  0  0  0  0  0
    7.3275   -1.8376    1.6400 H   0  0  0  0  0  0
    5.9002   -1.2861   -2.3865 H   0  0  0  0  0  0
    7.7842   -1.6300   -0.7975 H   0  0  0  0  0  0
   -3.1836   -1.0634   -0.2154 N   0  3  2  0  0  0
   -2.8157   -1.9021   -0.6433 H   0  0  0  0  0  0
  1  9  1  0  0  0
  1 17  1  0  0  0
  2  6  1  0  0  0
  2 49  1  0  0  0
  3 18  2  0  0  0
  4 23  1  0  0  0
  4 53  1  0  0  0
  5  6  1  0  0  0
  5  8  1  0  0  0
  5  9  1  0  0  0
  5 10  1  0  0  0
  6  7  1  0  0  0
  6 11  1  0  0  0
  7 13  1  0  0  0
  7 32  1  0  0  0
  7 59  1  0  0  0
  8 12  1  0  0  0
  8 33  1  0  0  0
  8 34  1  0  0  0
  9 18  1  0  0  0
  9 35  1  0  0  0
 10 14  2  0  0  0
 10 17  1  0  0  0
 11 19  1  0  0  0
 11 36  1  0  0  0
 11 37  1  0  0  0
 12 38  1  0  0  0
 12 39  1  0  0  0
 12 59  1  0  0  0
 13 14  1  0  0  0
 13 40  1  0  0  0
 13 41  1  0  0  0
 14 22  1  0  0  0
 15 16  1  0  0  0
 15 42  1  0  0  0
 15 43  1  0  0  0
 15 59  1  0  0  0
 16 20  1  0  0  0
 16 21  1  0  0  0
 16 44  1  0  0  0
 17 23  2  0  0  0
 18 19  1  0  0  0
 19 25  2  0  0  0
 20 21  1  0  0  0
 20 45  1  0  0  0
 20 46  1  0  0  0
 21 47  1  0  0  0
 21 48  1  0  0  0
 22 24  2  0  0  0
 22 50  1  0  0  0
 23 24  1  0  0  0
 24 51  1  0  0  0
 25 26  1  0  0  0
 25 52  1  0  0  0
 26 27  2  0  0  0
 26 28  1  0  0  0
 27 29  1  0  0  0
 27 54  1  0  0  0
 28 30  2  0  0  0
 28 55  1  0  0  0
 29 31  2  0  0  0
 29 56  1  0  0  0
 30 31  1  0  0  0
 30 57  1  0  0  0
 31 58  1  0  0  0
 59 60  1  0  0  0
M  CHG  1  59   1
M  END
> <LID>
L000138

> <PC_CID>
6438353

> <Names>
7-benzylidenenaltrexone

> <CAS_Numbers>
129468-28-6

$$$$
9669
                    3D
 Structure written by MMmdl.
 49 51  0  0  1  0            999 V2000
   -4.6878    1.9174    0.9673 O   0  0  0  0  0  0
   -1.1086   -1.4642    0.2484 C   0  0  1  0  0  0
   -0.3122   -2.0147   -0.9750 C   0  0  1  0  0  0
    0.6773   -0.9345   -1.4505 C   0  0  1  0  0  0
   -0.0966   -1.1386    1.3711 C   0  0  0  0  0  0
   -0.1095    0.2705   -2.0095 C   0  0  0  0  0  0
   -1.8295   -0.1541   -0.1426 C   0  0  0  0  0  0
    0.9872   -0.1449    0.9100 C   0  0  0  0  0  0
   -1.3364    0.6619   -1.1987 C   0  0  0  0  0  0
   -2.1127   -2.5345    0.7459 C   0  0  0  0  0  0
    0.3977   -3.3757   -0.7864 C   0  0  0  0  0  0
    2.7505    0.2915   -0.7846 C   0  0  0  0  0  0
   -2.9583    0.2997    0.5846 C   0  0  0  0  0  0
   -1.9859    1.8701   -1.5269 C   0  0  0  0  0  0
   -3.5999    1.5078    0.2531 C   0  0  0  0  0  0
   -3.1168    2.2926   -0.8077 C   0  0  0  0  0  0
    3.9627    0.1146    0.1153 C   0  0  0  0  0  0
    4.4582    0.9910    1.0131 C   0  0  0  0  0  0
    5.7009    0.6672    1.8193 C   0  0  0  0  0  0
    3.8625    2.3561    1.3163 C   0  0  0  0  0  0
   -1.0287   -2.1777   -1.7826 H   0  0  0  0  0  0
    1.2713   -1.3411   -2.2706 H   0  0  0  0  0  0
    0.3797   -2.0513    1.7291 H   0  0  0  0  0  0
   -0.6173   -0.7248    2.2358 H   0  0  0  0  0  0
   -0.4717    0.0117   -3.0053 H   0  0  0  0  0  0
    0.5329    1.1394   -2.1497 H   0  0  0  0  0  0
    0.5683    0.8534    0.7797 H   0  0  0  0  0  0
    1.7346   -0.0541    1.6984 H   0  0  0  0  0  0
   -1.6190   -3.4679    1.0117 H   0  0  0  0  0  0
   -2.6370   -2.2302    1.6502 H   0  0  0  0  0  0
   -2.8601   -2.7612   -0.0152 H   0  0  0  0  0  0
    0.9535   -3.6461   -1.6846 H   0  0  0  0  0  0
    1.1082   -3.3694    0.0393 H   0  0  0  0  0  0
   -0.3106   -4.1852   -0.6141 H   0  0  0  0  0  0
    3.0689    0.0206   -1.7919 H   0  0  0  0  0  0
    2.4217    1.3272   -0.8421 H   0  0  0  0  0  0
   -3.3498   -0.2603    1.4185 H   0  0  0  0  0  0
   -1.6135    2.4820   -2.3356 H   0  0  0  0  0  0
   -3.6035    3.2211   -1.0683 H   0  0  0  0  0  0
    4.4664   -0.8345   -0.0008 H   0  0  0  0  0  0
   -5.0459    2.7376    0.6643 H   0  0  0  0  0  0
    6.4774    1.4089    1.6303 H   0  0  0  0  0  0
    5.4732    0.6742    2.8855 H   0  0  0  0  0  0
    6.1031   -0.3145    1.5666 H   0  0  0  0  0  0
    4.5413    3.1417    0.9838 H   0  0  0  0  0  0
    2.8944    2.5255    0.8504 H   0  0  0  0  0  0
    3.7223    2.4671    2.3919 H   0  0  0  0  0  0
    1.6364   -0.5901   -0.3532 N   0  3  2  0  0  0
    2.0754   -1.4711   -0.1271 H   0  0  0  0  0  0
  1 15  1  0  0  0
  1 41  1  0  0  0
  2  3  1  0  0  0
  2  5  1  0  0  0
  2  7  1  0  0  0
  2 10  1  0  0  0
  3  4  1  0  0  0
  3 11  1  0  0  0
  3 21  1  0  0  0
  4  6  1  0  0  0
  4 22  1  0  0  0
  4 48  1  0  0  0
  5  8  1  0  0  0
  5 23  1  0  0  0
  5 24  1  0  0  0
  6  9  1  0  0  0
  6 25  1  0  0  0
  6 26  1  0  0  0
  7  9  2  0  0  0
  7 13  1  0  0  0
  8 27  1  0  0  0
  8 28  1  0  0  0
  8 48  1  0  0  0
  9 14  1  0  0  0
 10 29  1  0  0  0
 10 30  1  0  0  0
 10 31  1  0  0  0
 11 32  1  0  0  0
 11 33  1  0  0  0
 11 34  1  0  0  0
 12 17  1  0  0  0
 12 35  1  0  0  0
 12 36  1  0  0  0
 12 48  1  0  0  0
 13 15  2  0  0  0
 13 37  1  0  0  0
 14 16  2  0  0  0
 14 38  1  0  0  0
 15 16  1  0  0  0
 16 39  1  0  0  0
 17 18  2  0  0  0
 17 40  1  0  0  0
 18 19  1  0  0  0
 18 20  1  0  0  0
 19 42  1  0  0  0
 19 43  1  0  0  0
 19 44  1  0  0  0
 20 45  1  0  0  0
 20 46  1  0  0  0
 20 47  1  0  0  0
 48 49  1  0  0  0
M  CHG  1  48   1
M  END
> <LID>
L001017

> <PC_CID>
9669

> <Names>
KF 1820;Pentazocine

> <CAS_Numbers>
17146-95-1;359-83-1;64024-15-3

$$$$
4428
                    3D
 Structure written by MMmdl.
 49 54  0  0  1  0            999 V2000
    2.6284   -0.0634   -1.4411 O   0  0  0  0  0  0
   -0.7352    2.6937   -0.1378 O   0  0  0  0  0  0
    3.9593    2.0431   -0.3069 O   0  0  0  0  0  0
    3.9296   -2.6344   -0.7267 O   0  0  0  0  0  0
    0.5502    0.6392   -0.5345 C   0  0  2  0  0  0
   -0.1426    1.5653    0.4929 C   0  0  2  0  0  0
   -1.2804    0.7253    1.1366 C   0  0  2  0  0  0
    1.8841    1.1436   -1.1709 C   0  0  1  0  0  0
   -0.4761    0.2623   -1.6357 C   0  0  0  0  0  0
    1.0312   -0.6219    0.1212 C   0  0  0  0  0  0
    0.8720    2.1496    1.5003 C   0  0  0  0  0  0
   -1.7453   -0.3926   -1.0550 C   0  0  0  0  0  0
   -0.7397   -0.5461    1.8617 C   0  0  0  0  0  0
    0.4208   -1.2879    1.1947 C   0  0  0  0  0  0
   -3.5707   -0.1453    0.6155 C   0  0  0  0  0  0
    2.0086    2.9080    0.7899 C   0  0  0  0  0  0
   -4.7282    0.0850   -0.3384 C   0  0  0  0  0  0
    2.7322    2.0250   -0.2282 C   0  0  0  0  0  0
    2.1958   -0.9862   -0.5273 C   0  0  0  0  0  0
   -6.0702   -0.5532   -0.0596 C   0  0  0  0  0  0
   -5.2446   -1.0227   -1.2300 C   0  0  0  0  0  0
    1.0319   -2.4972    1.5890 C   0  0  0  0  0  0
    2.7841   -2.2024   -0.1262 C   0  0  0  0  0  0
    2.1931   -2.9591    0.9176 C   0  0  0  0  0  0
   -1.7886    1.3447    1.8774 H   0  0  0  0  0  0
    1.6998    1.7021   -2.0889 H   0  0  0  0  0  0
   -0.7566    1.1503   -2.2033 H   0  0  0  0  0  0
   -0.0254   -0.4142   -2.3633 H   0  0  0  0  0  0
    0.3680    2.8195    2.1980 H   0  0  0  0  0  0
    1.3080    1.3603    2.1135 H   0  0  0  0  0  0
   -2.4919   -0.4707   -1.8453 H   0  0  0  0  0  0
   -1.5392   -1.4143   -0.7344 H   0  0  0  0  0  0
   -1.5376   -1.2578    2.0697 H   0  0  0  0  0  0
   -0.3720   -0.2436    2.8426 H   0  0  0  0  0  0
   -3.8181    0.3574    1.5512 H   0  0  0  0  0  0
   -3.4808   -1.2087    0.8412 H   0  0  0  0  0  0
    2.7294    3.2686    1.5242 H   0  0  0  0  0  0
    1.6206    3.7860    0.2734 H   0  0  0  0  0  0
   -4.7766    1.0964   -0.7385 H   0  0  0  0  0  0
   -6.9608    0.0333   -0.2763 H   0  0  0  0  0  0
   -6.1487   -1.2201    0.7969 H   0  0  0  0  0  0
   -4.7742   -2.0010   -1.1519 H   0  0  0  0  0  0
   -5.5825   -0.7473   -2.2271 H   0  0  0  0  0  0
   -1.0218    3.3013    0.5281 H   0  0  0  0  0  0
    0.6278   -3.0628    2.4157 H   0  0  0  0  0  0
    2.6529   -3.8852    1.2302 H   0  0  0  0  0  0
    4.2393   -2.0332   -1.3874 H   0  0  0  0  0  0
   -2.2937    0.3939    0.0830 N   0  3  1  0  0  0
   -2.5294    1.2949   -0.3100 H   0  0  0  0  0  0
  1  8  1  0  0  0
  1 19  1  0  0  0
  2  6  1  0  0  0
  2 44  1  0  0  0
  3 18  2  0  0  0
  4 23  1  0  0  0
  4 47  1  0  0  0
  5  6  1  0  0  0
  5  8  1  0  0  0
  5  9  1  0  0  0
  5 10  1  0  0  0
  6  7  1  0  0  0
  6 11  1  0  0  0
  7 13  1  0  0  0
  7 25  1  0  0  0
  7 48  1  0  0  0
  8 18  1  0  0  0
  8 26  1  0  0  0
  9 12  1  0  0  0
  9 27  1  0  0  0
  9 28  1  0  0  0
 10 14  2  0  0  0
 10 19  1  0  0  0
 11 16  1  0  0  0
 11 29  1  0  0  0
 11 30  1  0  0  0
 12 31  1  0  0  0
 12 32  1  0  0  0
 12 48  1  0  0  0
 13 14  1  0  0  0
 13 33  1  0  0  0
 13 34  1  0  0  0
 14 22  1  0  0  0
 15 17  1  0  0  0
 15 35  1  0  0  0
 15 36  1  0  0  0
 15 48  1  0  0  0
 16 18  1  0  0  0
 16 37  1  0  0  0
 16 38  1  0  0  0
 17 20  1  0  0  0
 17 21  1  0  0  0
 17 39  1  0  0  0
 19 23  2  0  0  0
 20 21  1  0  0  0
 20 40  1  0  0  0
 20 41  1  0  0  0
 21 42  1  0  0  0
 21 43  1  0  0  0
 22 24  2  0  0  0
 22 45  1  0  0  0
 23 24  1  0  0  0
 24 46  1  0  0  0
 48 49  1  0  0  0
M  CHG  1  48   1
M  END
> <LID>
L024023

> <PC_CID>
4428

> <Names>
Naltrexone

> <CAS_Numbers>


$$$$
4422
                    3D
 Structure written by MMmdl.
 51 56  0  0  1  0            999 V2000
    2.5915    0.3441   -1.4323 O   0  0  0  0  0  0
   -0.9994    2.6910    0.1394 O   0  0  0  0  0  0
    4.0110   -2.2354   -1.0755 O   0  0  0  0  0  0
    0.4646    0.8115   -0.5016 C   0  0  2  0  0  0
   -0.3381    1.5226    0.6078 C   0  0  2  0  0  0
   -1.4068    0.4843    1.0846 C   0  0  2  0  0  0
    1.8048    1.4658   -0.9790 C   0  0  1  0  0  0
   -0.4673    0.5315   -1.7191 C   0  0  0  0  0  0
    1.0004   -0.5085   -0.0090 C   0  0  0  0  0  0
    0.5948    2.0509    1.7225 C   0  0  0  0  0  0
   -0.7349   -0.7385    1.7521 C   0  0  0  0  0  0
   -1.9744    0.4533   -1.3915 C   0  0  0  0  0  0
    0.4298   -1.3426    0.9683 C   0  0  0  0  0  0
    1.6931    2.9607    1.1472 C   0  0  0  0  0  0
   -3.6983   -0.1000    0.3141 C   0  0  0  0  0  0
    2.5469    2.2251    0.1285 C   0  0  0  0  0  0
   -4.4744   -1.1249   -0.4949 C   0  0  0  0  0  0
    2.1916   -0.7212   -0.6757 C   0  0  0  0  0  0
   -4.5522   -2.5669   -0.0488 C   0  0  0  0  0  0
   -5.7730   -1.6846    0.0393 C   0  0  0  0  0  0
    1.1006   -2.5617    1.2023 C   0  0  0  0  0  0
    2.8394   -1.9501   -0.4387 C   0  0  0  0  0  0
    3.8883    2.2185    0.2253 C   0  0  0  0  0  0
    2.2826   -2.8722    0.4830 C   0  0  0  0  0  0
   -2.0480    0.9706    1.8220 H   0  0  0  0  0  0
    1.6319    2.1729   -1.7908 H   0  0  0  0  0  0
   -0.1524   -0.3742   -2.2401 H   0  0  0  0  0  0
   -0.3562    1.3272   -2.4564 H   0  0  0  0  0  0
    1.0824    1.2316    2.2500 H   0  0  0  0  0  0
    0.0206    2.5913    2.4764 H   0  0  0  0  0  0
   -1.4710   -1.5211    1.9419 H   0  0  0  0  0  0
   -0.3572   -0.4587    2.7356 H   0  0  0  0  0  0
   -2.4348    1.4360   -1.4987 H   0  0  0  0  0  0
   -2.4548   -0.1741   -2.1412 H   0  0  0  0  0  0
   -4.1376    0.8881    0.1700 H   0  0  0  0  0  0
   -3.8212   -0.3479    1.3698 H   0  0  0  0  0  0
    2.3191    3.3353    1.9582 H   0  0  0  0  0  0
    1.2609    3.8396    0.6681 H   0  0  0  0  0  0
   -4.4705   -0.9498   -1.5684 H   0  0  0  0  0  0
   -1.3922    3.1356    0.8755 H   0  0  0  0  0  0
   -4.0612   -2.8386    0.8838 H   0  0  0  0  0  0
   -4.5393   -3.3326   -0.8219 H   0  0  0  0  0  0
   -6.5745   -1.8641   -0.6745 H   0  0  0  0  0  0
   -6.0946   -1.3719    1.0309 H   0  0  0  0  0  0
    0.7302   -3.2482    1.9495 H   0  0  0  0  0  0
    4.5037    1.6895   -0.4875 H   0  0  0  0  0  0
    4.3956    2.7463    1.0195 H   0  0  0  0  0  0
    2.7890   -3.8073    0.6731 H   0  0  0  0  0  0
    4.2867   -1.5392   -1.6525 H   0  0  0  0  0  0
   -2.2521   -0.0719   -0.0268 N   0  3  2  0  0  0
   -1.9729   -1.0417   -0.0725 H   0  0  0  0  0  0
  1  7  1  0  0  0
  1 18  1  0  0  0
  2  5  1  0  0  0
  2 40  1  0  0  0
  3 22  1  0  0  0
  3 49  1  0  0  0
  4  5  1  0  0  0
  4  7  1  0  0  0
  4  8  1  0  0  0
  4  9  1  0  0  0
  5  6  1  0  0  0
  5 10  1  0  0  0
  6 11  1  0  0  0
  6 25  1  0  0  0
  6 50  1  0  0  0
  7 16  1  0  0  0
  7 26  1  0  0  0
  8 12  1  0  0  0
  8 27  1  0  0  0
  8 28  1  0  0  0
  9 13  2  0  0  0
  9 18  1  0  0  0
 10 14  1  0  0  0
 10 29  1  0  0  0
 10 30  1  0  0  0
 11 13  1  0  0  0
 11 31  1  0  0  0
 11 32  1  0  0  0
 12 33  1  0  0  0
 12 34  1  0  0  0
 12 50  1  0  0  0
 13 21  1  0  0  0
 14 16  1  0  0  0
 14 37  1  0  0  0
 14 38  1  0  0  0
 15 17  1  0  0  0
 15 35  1  0  0  0
 15 36  1  0  0  0
 15 50  1  0  0  0
 16 23  2  0  0  0
 17 19  1  0  0  0
 17 20  1  0  0  0
 17 39  1  0  0  0
 18 22  2  0  0  0
 19 20  1  0  0  0
 19 41  1  0  0  0
 19 42  1  0  0  0
 20 43  1  0  0  0
 20 44  1  0  0  0
 21 24  2  0  0  0
 21 45  1  0  0  0
 22 24  1  0  0  0
 23 46  1  0  0  0
 23 47  1  0  0  0
 24 48  1  0  0  0
 50 51  1  0  0  0
M  CHG  1  50   1
M  END
> <LID>
L024021

> <PC_CID>
4422

> <Names>
nalmefene

> <CAS_Numbers>


$$$$
5284596
                    3D
 Structure written by MMmdl.
 46 50  0  0  1  0            999 V2000
   -2.2968   -0.0149   -1.4525 O   0  0  0  0  0  0
    1.1911    2.6040   -0.1555 O   0  0  0  0  0  0
   -3.5401    2.1183   -0.2697 O   0  0  0  0  0  0
   -3.6752   -2.5498   -0.7551 O   0  0  0  0  0  0
   -0.1839    0.6050   -0.5652 C   0  0  1  0  0  0
    0.5546    1.4932    0.4640 C   0  0  1  0  0  0
    1.6687    0.6059    1.0842 C   0  0  1  0  0  0
   -1.5088    1.1622   -1.1760 C   0  0  2  0  0  0
    0.8156    0.2078   -1.6842 C   0  0  0  0  0  0
   -0.6992   -0.6479    0.0806 C   0  0  0  0  0  0
   -0.4228    2.1028    1.4922 C   0  0  0  0  0  0
    1.0947   -0.6564    1.7988 C   0  0  0  0  0  0
    2.0708   -0.4954   -1.1281 C   0  0  0  0  0  0
   -0.0985   -1.3489    1.1372 C   0  0  0  0  0  0
   -1.5459    2.9047    0.8084 C   0  0  0  0  0  0
   -2.3135    2.0581   -0.2090 C   0  0  0  0  0  0
   -1.8838   -0.9641   -0.5570 C   0  0  0  0  0  0
    3.9248   -0.3258    0.5248 C   0  0  0  0  0  0
   -0.7453   -2.5421    1.5236 C   0  0  0  0  0  0
   -2.5080   -2.1651   -0.1642 C   0  0  0  0  0  0
   -1.9300   -2.9553    0.8617 C   0  0  0  0  0  0
    5.0580   -0.1067   -0.4579 C   0  0  0  0  0  0
    5.7448   -1.0914   -1.0566 C   0  0  0  0  0  0
    2.2062    1.1983    1.8266 H   0  0  0  0  0  0
   -1.3187    1.7268   -2.0890 H   0  0  0  0  0  0
    1.1181    1.0925   -2.2455 H   0  0  0  0  0  0
    0.3337   -0.4450   -2.4135 H   0  0  0  0  0  0
    0.1164    2.7494    2.1859 H   0  0  0  0  0  0
   -0.8741    1.3232    2.1066 H   0  0  0  0  0  0
    0.7503   -0.3556    2.7887 H   0  0  0  0  0  0
    1.8710   -1.3973    1.9860 H   0  0  0  0  0  0
    1.8344   -1.5137   -0.8177 H   0  0  0  0  0  0
    2.8048   -0.5894   -1.9286 H   0  0  0  0  0  0
   -1.1409    3.7792    0.2994 H   0  0  0  0  0  0
   -2.2439    3.2760    1.5592 H   0  0  0  0  0  0
    0.5289    3.1789   -0.5091 H   0  0  0  0  0  0
    4.2114    0.1524    1.4621 H   0  0  0  0  0  0
    3.8025   -1.3900    0.7311 H   0  0  0  0  0  0
   -0.3502   -3.1321    2.3375 H   0  0  0  0  0  0
   -2.4170   -3.8696    1.1682 H   0  0  0  0  0  0
    5.3130    0.9204   -0.6765 H   0  0  0  0  0  0
   -3.9728   -1.9299   -1.4039 H   0  0  0  0  0  0
    6.5436   -0.8689   -1.7489 H   0  0  0  0  0  0
    5.5211   -2.1309   -0.8654 H   0  0  0  0  0  0
    2.6578    0.2568    0.0148 N   0  3  2  0  0  0
    2.9141    1.1581   -0.3650 H   0  0  0  0  0  0
  1  8  1  0  0  0
  1 17  1  0  0  0
  2  6  1  0  0  0
  2 36  1  0  0  0
  3 16  2  0  0  0
  4 20  1  0  0  0
  4 42  1  0  0  0
  5  6  1  0  0  0
  5  8  1  0  0  0
  5  9  1  0  0  0
  5 10  1  0  0  0
  6  7  1  0  0  0
  6 11  1  0  0  0
  7 12  1  0  0  0
  7 24  1  0  0  0
  7 45  1  0  0  0
  8 16  1  0  0  0
  8 25  1  0  0  0
  9 13  1  0  0  0
  9 26  1  0  0  0
  9 27  1  0  0  0
 10 14  2  0  0  0
 10 17  1  0  0  0
 11 15  1  0  0  0
 11 28  1  0  0  0
 11 29  1  0  0  0
 12 14  1  0  0  0
 12 30  1  0  0  0
 12 31  1  0  0  0
 13 32  1  0  0  0
 13 33  1  0  0  0
 13 45  1  0  0  0
 14 19  1  0  0  0
 15 16  1  0  0  0
 15 34  1  0  0  0
 15 35  1  0  0  0
 17 20  2  0  0  0
 18 22  1  0  0  0
 18 37  1  0  0  0
 18 38  1  0  0  0
 18 45  1  0  0  0
 19 21  2  0  0  0
 19 39  1  0  0  0
 20 21  1  0  0  0
 21 40  1  0  0  0
 22 23  2  0  0  0
 22 41  1  0  0  0
 23 43  1  0  0  0
 23 44  1  0  0  0
 45 46  1  0  0  0
M  CHG  1  45   1
M  END
> <LID>
L000674

> <PC_CID>
5284596

> <Names>
Naloxone

> <CAS_Numbers>
357-08-4;465-65-6

$$$$
22266
                    3D
 Structure written by MMmdl.
 51 52  0  0  1  0            999 V2000
    3.9997    6.6783   -2.5539 O   0  0  0  0  0  0
    4.0883    6.4454   -0.1252 C   0  0  0  0  0  0
    2.5223    6.5071   -0.2374 C   0  0  0  0  0  0
    1.8013    5.2940   -0.9008 C   0  0  1  0  0  0
    4.6352    7.6350    0.7108 C   0  0  0  0  0  0
    4.4480    5.0936    0.5455 C   0  0  0  0  0  0
    4.7084    6.5973   -1.5479 C   0  0  0  0  0  0
    1.1825    4.3227    0.1297 C   0  0  0  0  0  0
    6.2391    6.6546   -1.6764 C   0  0  0  0  0  0
    5.8835    7.5318    1.3795 C   0  0  0  0  0  0
    4.9471    3.9780   -0.1784 C   0  0  0  0  0  0
    3.9379    8.8676    0.8077 C   0  0  0  0  0  0
    4.2161    4.9321    1.9347 C   0  0  0  0  0  0
    0.4932    4.7596   -2.9506 C   0  0  0  0  0  0
   -0.4181    6.3783   -1.3381 C   0  0  0  0  0  0
    6.7473    6.3417   -3.0917 C   0  0  0  0  0  0
    6.4032    8.6030    2.1302 C   0  0  0  0  0  0
    5.2310    2.7618    0.4720 C   0  0  0  0  0  0
    4.4569    9.9401    1.5585 C   0  0  0  0  0  0
    4.5009    3.7169    2.5855 C   0  0  0  0  0  0
    5.6884    9.8092    2.2232 C   0  0  0  0  0  0
    5.0123    2.6306    1.8546 C   0  0  0  0  0  0
    2.0968    6.6573    0.7561 H   0  0  0  0  0  0
    2.2465    7.4037   -0.7929 H   0  0  0  0  0  0
    2.5434    4.7282   -1.4635 H   0  0  0  0  0  0
    0.4714    4.8229    0.7873 H   0  0  0  0  0  0
    0.6631    3.4966   -0.3552 H   0  0  0  0  0  0
    1.9454    3.8768    0.7650 H   0  0  0  0  0  0
    6.5727    7.6510   -1.3864 H   0  0  0  0  0  0
    6.6861    5.9565   -0.9696 H   0  0  0  0  0  0
    5.1145    4.0235   -1.2437 H   0  0  0  0  0  0
    6.4635    6.6226    1.3211 H   0  0  0  0  0  0
    3.8123    5.7487    2.5153 H   0  0  0  0  0  0
    2.9959    9.0292    0.3101 H   0  0  0  0  0  0
   -0.1321    5.1996   -3.7281 H   0  0  0  0  0  0
    1.4033    4.3980   -3.4305 H   0  0  0  0  0  0
   -0.0400    3.9041   -2.5355 H   0  0  0  0  0  0
   -0.9969    6.8649   -2.1237 H   0  0  0  0  0  0
   -1.0587    5.6308   -0.8689 H   0  0  0  0  0  0
   -0.1745    7.1367   -0.5938 H   0  0  0  0  0  0
    7.8367    6.3612   -3.1205 H   0  0  0  0  0  0
    6.4263    5.3522   -3.4192 H   0  0  0  0  0  0
    6.3868    7.0723   -3.8168 H   0  0  0  0  0  0
    5.6138    1.9251   -0.0939 H   0  0  0  0  0  0
    7.3536    8.4988    2.6328 H   0  0  0  0  0  0
    4.3225    3.6179    3.6461 H   0  0  0  0  0  0
    3.9085   10.8686    1.6214 H   0  0  0  0  0  0
    6.0858   10.6330    2.7977 H   0  0  0  0  0  0
    5.2297    1.6967    2.3519 H   0  0  0  0  0  0
    0.8056    5.7649   -1.9083 N   0  3  0  0  0  0
    1.2784    6.5078   -2.4046 H   0  0  0  0  0  0
  1  7  2  0  0  0
  2  3  1  0  0  0
  2  5  1  0  0  0
  2  6  1  0  0  0
  2  7  1  0  0  0
  3  4  1  0  0  0
  3 23  1  0  0  0
  3 24  1  0  0  0
  4  8  1  0  0  0
  4 25  1  0  0  0
  4 50  1  0  0  0
  5 10  2  0  0  0
  5 12  1  0  0  0
  6 11  2  0  0  0
  6 13  1  0  0  0
  7  9  1  0  0  0
  8 26  1  0  0  0
  8 27  1  0  0  0
  8 28  1  0  0  0
  9 16  1  0  0  0
  9 29  1  0  0  0
  9 30  1  0  0  0
 10 17  1  0  0  0
 10 32  1  0  0  0
 11 18  1  0  0  0
 11 31  1  0  0  0
 12 19  2  0  0  0
 12 34  1  0  0  0
 13 20  2  0  0  0
 13 33  1  0  0  0
 14 35  1  0  0  0
 14 36  1  0  0  0
 14 37  1  0  0  0
 14 50  1  0  0  0
 15 38  1  0  0  0
 15 39  1  0  0  0
 15 40  1  0  0  0
 15 50  1  0  0  0
 16 41  1  0  0  0
 16 42  1  0  0  0
 16 43  1  0  0  0
 17 21  2  0  0  0
 17 45  1  0  0  0
 18 22  2  0  0  0
 18 44  1  0  0  0
 19 21  1  0  0  0
 19 47  1  0  0  0
 20 22  1  0  0  0
 20 46  1  0  0  0
 21 48  1  0  0  0
 22 49  1  0  0  0
 50 51  1  0  0  0
M  CHG  1  50   1
M  END
> <LID>
L001233

> <PC_CID>
22266

> <Names>
l-Amidone hydrochloride

> <CAS_Numbers>
5967-73-7

$$$$
