44216272
                    3D
 Structure written by MMmdl.
 71 74  0  0  1  0            999 V2000
   -2.3546    1.5572   -5.9143 F   0  0  0  0  0  0
   -0.4627    0.4985   -5.9000 F   0  0  0  0  0  0
   -2.3222   -0.5946   -6.1206 F   0  0  0  0  0  0
    3.1858   -1.4537   -3.9726 O   0  0  0  0  0  0
    2.3243   -0.8669    2.7111 O   0  0  0  0  0  0
   -1.2350   -2.1644    0.7032 O   0  0  0  0  0  0
    1.7844    1.1828    1.9041 N   0  0  0  0  0  0
   -1.4305   -0.6084    2.3425 N   0  0  0  0  0  0
   -1.7977    0.0057    0.2450 N   0  0  0  0  0  0
    1.9590   -0.0502   -2.3913 C   0  0  0  0  0  0
    2.7708   -0.1359   -3.6819 C   0  0  1  0  0  0
    3.3656    1.8953   -2.5161 C   0  0  0  0  0  0
    3.9574    0.7825   -3.3910 C   0  0  0  0  0  0
    1.7286    1.7283   -0.5764 C   0  0  0  0  0  0
    2.3893    0.9093    0.5754 C   0  0  1  0  0  0
    3.9135    1.0110    0.6061 C   0  0  0  0  0  0
    1.7065    0.1929    2.8316 C   0  0  0  0  0  0
    1.2705    2.5329    2.1787 C   0  0  0  0  0  0
    4.5581    2.1879    1.0499 C   0  0  0  0  0  0
    4.6979   -0.0858    0.1851 C   0  0  0  0  0  0
    0.7548    0.3463    4.0375 C   0  0  0  0  0  0
    5.9639    2.2688    1.0617 C   0  0  0  0  0  0
    6.1034   -0.0043    0.1963 C   0  0  0  0  0  0
    0.0044   -0.9550    4.3081 C   0  0  0  0  0  0
    6.7373    1.1737    0.6335 C   0  0  0  0  0  0
   -1.0275   -1.4063    3.4449 C   0  0  0  0  0  0
    0.3696   -1.7412    5.4226 C   0  0  0  0  0  0
   -1.6802   -2.6313    3.7119 C   0  0  0  0  0  0
   -0.2822   -2.9619    5.6802 C   0  0  0  0  0  0
   -1.3062   -3.4075    4.8246 C   0  0  0  0  0  0
   -1.4787   -1.0136    1.0633 C   0  0  0  0  0  0
   -1.8133    0.0432   -1.1774 C   0  0  0  0  0  0
   -1.7957    1.3173   -1.7819 C   0  0  0  0  0  0
   -1.8547   -1.1064   -2.0039 C   0  0  0  0  0  0
   -1.7944    0.3014   -4.0059 C   0  0  0  0  0  0
   -1.7758    1.4471   -3.1835 C   0  0  0  0  0  0
   -1.8392   -0.9748   -3.4061 C   0  0  0  0  0  0
   -1.7386    0.4426   -5.5194 C   0  0  0  0  0  0
    0.9177   -0.3370   -2.5295 H   0  0  0  0  0  0
    2.3991   -0.7233   -1.6585 H   0  0  0  0  0  0
    2.1901    0.2597   -4.5169 H   0  0  0  0  0  0
    4.0700    2.2084   -1.7479 H   0  0  0  0  0  0
    3.1373    2.7756   -3.1177 H   0  0  0  0  0  0
    4.7164    0.2437   -2.8211 H   0  0  0  0  0  0
    4.4317    1.1615   -4.2967 H   0  0  0  0  0  0
    1.9347    2.7930   -0.4732 H   0  0  0  0  0  0
    0.6484    1.6206   -0.4940 H   0  0  0  0  0  0
    2.1437   -0.1300    0.3599 H   0  0  0  0  0  0
    2.4250   -1.9787   -4.1718 H   0  0  0  0  0  0
    1.4028    2.8119    3.2250 H   0  0  0  0  0  0
    1.7854    3.3064    1.6136 H   0  0  0  0  0  0
    0.2082    2.5913    1.9386 H   0  0  0  0  0  0
    3.9847    3.0405    1.3780 H   0  0  0  0  0  0
    4.2274   -0.9986   -0.1492 H   0  0  0  0  0  0
    1.3412    0.6342    4.9106 H   0  0  0  0  0  0
    0.0090    1.1264    3.8918 H   0  0  0  0  0  0
    6.4496    3.1725    1.3994 H   0  0  0  0  0  0
    6.6954   -0.8472   -0.1290 H   0  0  0  0  0  0
    7.8156    1.2361    0.6430 H   0  0  0  0  0  0
    1.1600   -1.4143    6.0822 H   0  0  0  0  0  0
   -2.4743   -2.9786    3.0670 H   0  0  0  0  0  0
    0.0056   -3.5579    6.5338 H   0  0  0  0  0  0
   -1.5399    0.3779    2.5230 H   0  0  0  0  0  0
   -1.8073   -4.3434    5.0231 H   0  0  0  0  0  0
   -1.9619    0.8936    0.6949 H   0  0  0  0  0  0
   -1.7785    2.2077   -1.1699 H   0  0  0  0  0  0
   -1.8992   -2.1024   -1.5930 H   0  0  0  0  0  0
   -1.7417    2.4321   -3.6256 H   0  0  0  0  0  0
   -1.8557   -1.8634   -4.0200 H   0  0  0  0  0  0
    2.0914    1.3635   -1.9755 N   0  3  2  0  0  0
    1.3988    1.8392   -2.5362 H   0  0  0  0  0  0
  1 38  1  0  0  0
  2 38  1  0  0  0
  3 38  1  0  0  0
  4 11  1  0  0  0
  4 49  1  0  0  0
  5 17  2  0  0  0
  6 31  2  0  0  0
  7 15  1  0  0  0
  7 17  1  0  0  0
  7 18  1  0  0  0
  8 26  1  0  0  0
  8 31  1  0  0  0
  8 63  1  0  0  0
  9 31  1  0  0  0
  9 32  1  0  0  0
  9 65  1  0  0  0
 10 11  1  0  0  0
 10 39  1  0  0  0
 10 40  1  0  0  0
 10 70  1  0  0  0
 11 13  1  0  0  0
 11 41  1  0  0  0
 12 13  1  0  0  0
 12 42  1  0  0  0
 12 43  1  0  0  0
 12 70  1  0  0  0
 13 44  1  0  0  0
 13 45  1  0  0  0
 14 15  1  0  0  0
 14 46  1  0  0  0
 14 47  1  0  0  0
 14 70  1  0  0  0
 15 16  1  0  0  0
 15 48  1  0  0  0
 16 19  2  0  0  0
 16 20  1  0  0  0
 17 21  1  0  0  0
 18 50  1  0  0  0
 18 51  1  0  0  0
 18 52  1  0  0  0
 19 22  1  0  0  0
 19 53  1  0  0  0
 20 23  2  0  0  0
 20 54  1  0  0  0
 21 24  1  0  0  0
 21 55  1  0  0  0
 21 56  1  0  0  0
 22 25  2  0  0  0
 22 57  1  0  0  0
 23 25  1  0  0  0
 23 58  1  0  0  0
 24 26  1  0  0  0
 24 27  2  0  0  0
 25 59  1  0  0  0
 26 28  2  0  0  0
 27 29  1  0  0  0
 27 60  1  0  0  0
 28 30  1  0  0  0
 28 61  1  0  0  0
 29 30  2  0  0  0
 29 62  1  0  0  0
 30 64  1  0  0  0
 32 33  2  0  0  0
 32 34  1  0  0  0
 33 36  1  0  0  0
 33 66  1  0  0  0
 34 37  2  0  0  0
 34 67  1  0  0  0
 35 36  2  0  0  0
 35 37  1  0  0  0
 35 38  1  0  0  0
 36 68  1  0  0  0
 37 69  1  0  0  0
 70 71  1  0  0  0
M  CHG  1  70   1
M  END
> <LID>
L023610

> <PC_CID>
44216272

> <Names>


> <CAS_Numbers>


$$$$
18411407
                    3D
 Structure written by MMmdl.
 53 55  0  0  1  0            999 V2000
    0.6967    0.0047   -0.5083 O   0  0  0  0  0  0
   -5.6381    2.3016    0.8097 O   0  0  0  0  0  0
    2.4404   -0.6978    0.7654 N   0  0  0  0  0  0
    3.4231   -0.2872   -0.2782 C   0  0  2  0  0  0
    4.8000   -1.0017   -0.2186 C   0  0  0  0  0  0
    4.8242   -2.2355    0.6736 C   0  0  0  0  0  0
    2.8900   -1.3481    2.0186 C   0  0  0  0  0  0
    4.3557   -1.7988    2.0532 C   0  0  0  0  0  0
    3.5965    1.2548   -0.2739 C   0  0  0  0  0  0
    1.1129   -0.4864    0.5441 C   0  0  0  0  0  0
    0.0941   -0.8590    1.6431 C   0  0  0  0  0  0
   -1.3055   -0.3400    1.3459 C   0  0  0  0  0  0
   -3.5299   -0.6739    0.3748 C   0  0  0  0  0  0
   -4.4945   -1.5781   -0.3763 C   0  0  0  0  0  0
    3.7856    1.7270   -2.6988 C   0  0  0  0  0  0
    5.0299    3.0827   -1.0839 C   0  0  0  0  0  0
   -2.2315   -1.1483    0.6555 C   0  0  0  0  0  0
   -3.9146    0.6252    0.7980 C   0  0  0  0  0  0
   -5.5990   -0.7891   -1.0894 C   0  0  0  0  0  0
   -6.2790    0.2137   -0.1479 C   0  0  0  0  0  0
   -1.6859    0.9515    1.7620 C   0  0  0  0  0  0
   -5.2773    1.1619    0.5177 C   0  0  0  0  0  0
   -2.9807    1.4306    1.4885 C   0  0  0  0  0  0
    2.9946   -0.5940   -1.2333 H   0  0  0  0  0  0
    5.1213   -1.2698   -1.2259 H   0  0  0  0  0  0
    5.5603   -0.3133    0.1538 H   0  0  0  0  0  0
    4.1795   -3.0198    0.2744 H   0  0  0  0  0  0
    5.8340   -2.6438    0.7251 H   0  0  0  0  0  0
    2.2907   -2.2457    2.1775 H   0  0  0  0  0  0
    2.7003   -0.6900    2.8676 H   0  0  0  0  0  0
    4.4763   -2.6112    2.7708 H   0  0  0  0  0  0
    4.9842   -0.9824    2.4121 H   0  0  0  0  0  0
    2.6373    1.7718   -0.3216 H   0  0  0  0  0  0
    4.0387    1.5390    0.6826 H   0  0  0  0  0  0
    0.0531   -1.9437    1.7482 H   0  0  0  0  0  0
    0.4093   -0.4526    2.6044 H   0  0  0  0  0  0
   -3.9472   -2.1835   -1.1000 H   0  0  0  0  0  0
   -4.9381   -2.2693    0.3412 H   0  0  0  0  0  0
    4.4613    2.0781   -3.4795 H   0  0  0  0  0  0
    3.4744    0.7197   -2.9731 H   0  0  0  0  0  0
    2.9037    2.3690   -2.7007 H   0  0  0  0  0  0
    5.6058    3.0620   -0.1579 H   0  0  0  0  0  0
    4.2437    3.8321   -0.9819 H   0  0  0  0  0  0
    5.7030    3.4000   -1.8812 H   0  0  0  0  0  0
   -1.9418   -2.1383    0.3342 H   0  0  0  0  0  0
   -5.1700   -0.2494   -1.9350 H   0  0  0  0  0  0
   -6.3372   -1.4746   -1.5065 H   0  0  0  0  0  0
   -6.8178   -0.3189    0.6359 H   0  0  0  0  0  0
   -7.0161    0.8000   -0.6972 H   0  0  0  0  0  0
   -0.9847    1.5805    2.2906 H   0  0  0  0  0  0
   -3.2491    2.4247    1.8164 H   0  0  0  0  0  0
    4.4578    1.7502   -1.3787 N   0  3  0  0  0  0
    5.2424    1.1165   -1.4374 H   0  0  0  0  0  0
  1 10  2  0  0  0
  2 22  2  0  0  0
  3  4  1  0  0  0
  3  7  1  0  0  0
  3 10  1  0  0  0
  4  5  1  0  0  0
  4  9  1  0  0  0
  4 24  1  0  0  0
  5  6  1  0  0  0
  5 25  1  0  0  0
  5 26  1  0  0  0
  6  8  1  0  0  0
  6 27  1  0  0  0
  6 28  1  0  0  0
  7  8  1  0  0  0
  7 29  1  0  0  0
  7 30  1  0  0  0
  8 31  1  0  0  0
  8 32  1  0  0  0
  9 33  1  0  0  0
  9 34  1  0  0  0
  9 52  1  0  0  0
 10 11  1  0  0  0
 11 12  1  0  0  0
 11 35  1  0  0  0
 11 36  1  0  0  0
 12 17  2  0  0  0
 12 21  1  0  0  0
 13 14  1  0  0  0
 13 17  1  0  0  0
 13 18  2  0  0  0
 14 19  1  0  0  0
 14 37  1  0  0  0
 14 38  1  0  0  0
 15 39  1  0  0  0
 15 40  1  0  0  0
 15 41  1  0  0  0
 15 52  1  0  0  0
 16 42  1  0  0  0
 16 43  1  0  0  0
 16 44  1  0  0  0
 16 52  1  0  0  0
 17 45  1  0  0  0
 18 22  1  0  0  0
 18 23  1  0  0  0
 19 20  1  0  0  0
 19 46  1  0  0  0
 19 47  1  0  0  0
 20 22  1  0  0  0
 20 48  1  0  0  0
 20 49  1  0  0  0
 21 23  2  0  0  0
 21 50  1  0  0  0
 23 51  1  0  0  0
 52 53  1  0  0  0
M  CHG  1  52   1
M  END
> <LID>
L011798

> <PC_CID>
18411407

> <Names>


> <CAS_Numbers>


$$$$
44209565
                    3D
 Structure written by MMmdl.
 56 57  0  0  1  0            999 V2000
   -1.7550    1.2459   -2.2861 O   0  0  0  0  0  0
   -0.1664   -0.0926   -3.2378 O   0  0  0  0  0  0
   -1.7539   -2.4269   -1.6226 O   0  0  0  0  0  0
    4.8042    0.5088    1.2827 O   0  0  0  0  0  0
    5.8159   -0.1025   -0.6886 O   0  0  0  0  0  0
   -1.5639   -0.6947   -0.1425 N   0  0  0  0  0  0
   -0.3640   -0.0628   -0.7995 C   0  0  0  0  0  0
    0.1284    1.2118   -0.0332 C   0  0  0  0  0  0
    0.8406   -1.0611   -0.7599 C   0  0  0  0  0  0
    1.4639    1.7746   -0.5511 C   0  0  0  0  0  0
    2.1962   -0.4668   -1.2007 C   0  0  0  0  0  0
   -0.7434    0.3594   -2.2477 C   0  0  0  0  0  0
    3.8684    1.3123   -0.7697 C   0  0  0  0  0  0
   -2.1383   -0.0481    0.9900 C   0  0  0  0  0  0
   -2.1501   -1.8383   -0.6164 C   0  0  0  0  0  0
   -3.3724   -2.4525    0.0935 C   0  0  0  0  0  0
    4.9442    0.4938   -0.0571 C   0  0  0  0  0  0
   -1.7026   -0.3844    2.2911 C   0  0  0  0  0  0
   -3.1401    0.9318    0.8157 C   0  0  0  0  0  0
   -4.6798   -2.1104   -0.6343 C   0  0  0  0  0  0
   -2.2308    1.7120   -3.5363 C   0  0  0  0  0  0
   -2.2674    0.2568    3.4104 C   0  0  0  0  0  0
   -3.7027    1.5706    1.9373 C   0  0  0  0  0  0
   -3.2666    1.2336    3.2336 C   0  0  0  0  0  0
    5.6980   -0.2252    2.1087 C   0  0  0  0  0  0
    5.2325   -1.6799    2.2558 C   0  0  0  0  0  0
    0.2766    0.9833    1.0225 H   0  0  0  0  0  0
   -0.6200    2.0051   -0.0634 H   0  0  0  0  0  0
    0.6548   -1.9390   -1.3775 H   0  0  0  0  0  0
    0.9479   -1.4406    0.2576 H   0  0  0  0  0  0
    1.3786    2.1129   -1.5849 H   0  0  0  0  0  0
    1.7324    2.6497    0.0422 H   0  0  0  0  0  0
    2.9701   -1.2210   -1.0543 H   0  0  0  0  0  0
    2.1962   -0.2381   -2.2665 H   0  0  0  0  0  0
    4.0288    1.3143   -1.8486 H   0  0  0  0  0  0
    3.9478    2.3431   -0.4229 H   0  0  0  0  0  0
   -3.2440   -3.5355    0.0847 H   0  0  0  0  0  0
   -3.4438   -2.1897    1.1474 H   0  0  0  0  0  0
   -0.9365   -1.1331    2.4313 H   0  0  0  0  0  0
   -3.4799    1.1937   -0.1756 H   0  0  0  0  0  0
   -4.6445   -2.4097   -1.6826 H   0  0  0  0  0  0
   -4.8858   -1.0404   -0.5979 H   0  0  0  0  0  0
   -5.5234   -2.6245   -0.1734 H   0  0  0  0  0  0
   -3.0471    2.4176   -3.3820 H   0  0  0  0  0  0
   -1.4399    2.2211   -4.0885 H   0  0  0  0  0  0
   -2.6049    0.8857   -4.1421 H   0  0  0  0  0  0
   -1.9346   -0.0008    4.4051 H   0  0  0  0  0  0
   -4.4697    2.3192    1.8035 H   0  0  0  0  0  0
   -3.6996    1.7243    4.0929 H   0  0  0  0  0  0
    6.7159   -0.1821    1.7179 H   0  0  0  0  0  0
    5.7212    0.2496    3.0897 H   0  0  0  0  0  0
    5.8971   -2.2320    2.9204 H   0  0  0  0  0  0
    4.2268   -1.7294    2.6737 H   0  0  0  0  0  0
    5.2233   -2.1944    1.2947 H   0  0  0  0  0  0
    2.5336    0.7584   -0.4343 N   0  3  0  0  0  0
    2.5750    0.4999    0.5418 H   0  0  0  0  0  0
  1 12  1  0  0  0
  1 21  1  0  0  0
  2 12  2  0  0  0
  3 15  2  0  0  0
  4 17  1  0  0  0
  4 25  1  0  0  0
  5 17  2  0  0  0
  6  7  1  0  0  0
  6 14  1  0  0  0
  6 15  1  0  0  0
  7  8  1  0  0  0
  7  9  1  0  0  0
  7 12  1  0  0  0
  8 10  1  0  0  0
  8 27  1  0  0  0
  8 28  1  0  0  0
  9 11  1  0  0  0
  9 29  1  0  0  0
  9 30  1  0  0  0
 10 31  1  0  0  0
 10 32  1  0  0  0
 10 55  1  0  0  0
 11 33  1  0  0  0
 11 34  1  0  0  0
 11 55  1  0  0  0
 13 17  1  0  0  0
 13 35  1  0  0  0
 13 36  1  0  0  0
 13 55  1  0  0  0
 14 18  2  0  0  0
 14 19  1  0  0  0
 15 16  1  0  0  0
 16 20  1  0  0  0
 16 37  1  0  0  0
 16 38  1  0  0  0
 18 22  1  0  0  0
 18 39  1  0  0  0
 19 23  2  0  0  0
 19 40  1  0  0  0
 20 41  1  0  0  0
 20 42  1  0  0  0
 20 43  1  0  0  0
 21 44  1  0  0  0
 21 45  1  0  0  0
 21 46  1  0  0  0
 22 24  2  0  0  0
 22 47  1  0  0  0
 23 24  1  0  0  0
 23 48  1  0  0  0
 24 49  1  0  0  0
 25 26  1  0  0  0
 25 50  1  0  0  0
 25 51  1  0  0  0
 26 52  1  0  0  0
 26 53  1  0  0  0
 26 54  1  0  0  0
 55 56  1  0  0  0
M  CHG  1  55   1
M  END
> <LID>
L004290

> <PC_CID>
44209565

> <Names>


> <CAS_Numbers>


$$$$
18915140
                    3D
 Structure written by MMmdl.
 53 56  0  0  1  0            999 V2000
    3.3764   -2.8136   -1.4471 Cl  0  0  0  0  0  0
    6.0771   -2.1989    0.1343 Cl  0  0  0  0  0  0
   -3.0179    2.3057   -1.8941 S   0  0  0  0  0  0
   -0.3223    0.4974    1.8096 O   0  0  0  0  0  0
   -0.8283    0.6283   -0.4051 N   0  0  0  0  0  0
   -2.2320    0.1387   -0.3422 C   0  0  1  0  0  0
   -2.5662   -0.8691    0.7922 C   0  0  0  0  0  0
    1.3234    1.6224    0.5184 C   0  0  1  0  0  0
   -4.3689   -2.2332    1.8396 C   0  0  0  0  0  0
   -4.0389   -2.4127   -0.5200 C   0  0  0  0  0  0
   -4.9279   -3.5777    1.3576 C   0  0  0  0  0  0
   -5.1534   -3.3804   -0.1364 C   0  0  0  0  0  0
   -3.1598    1.3732   -0.3383 C   0  0  0  0  0  0
   -0.0226    0.8623    0.6737 C   0  0  0  0  0  0
    1.4764    2.6814    1.6356 C   0  0  0  0  0  0
   -0.5232    1.1068   -1.7662 C   0  0  0  0  0  0
    2.5179    0.6533    0.4372 C   0  0  0  0  0  0
    2.8866    3.2689    1.6657 C   0  0  0  0  0  0
   -1.2094    2.4632   -1.9990 C   0  0  0  0  0  0
    3.9105    2.1742    1.9745 C   0  0  0  0  0  0
    3.7344    0.9288    1.1190 C   0  0  0  0  0  0
    2.4430   -0.5128   -0.3639 C   0  0  0  0  0  0
    4.8203    0.0343    1.0177 C   0  0  0  0  0  0
    3.5301   -1.4011   -0.4640 C   0  0  0  0  0  0
    4.7241   -1.1289    0.2330 C   0  0  0  0  0  0
   -2.4200   -0.4069   -1.2667 H   0  0  0  0  0  0
   -1.8038   -1.6473    0.8571 H   0  0  0  0  0  0
   -2.5853   -0.3500    1.7506 H   0  0  0  0  0  0
    1.3477    2.2077   -0.3966 H   0  0  0  0  0  0
   -3.5711   -2.3904    2.5674 H   0  0  0  0  0  0
   -5.1448   -1.6410    2.3258 H   0  0  0  0  0  0
   -4.2627   -1.8714   -1.4398 H   0  0  0  0  0  0
   -3.1105   -2.9666   -0.6702 H   0  0  0  0  0  0
   -4.2037    1.0824   -0.2232 H   0  0  0  0  0  0
   -2.9206    2.0310    0.4984 H   0  0  0  0  0  0
   -4.1844   -4.3608    1.5135 H   0  0  0  0  0  0
   -5.8353   -3.8718    1.8860 H   0  0  0  0  0  0
   -6.1262   -2.9176   -0.3089 H   0  0  0  0  0  0
   -5.1182   -4.3139   -0.6991 H   0  0  0  0  0  0
    0.7419    3.4760    1.4976 H   0  0  0  0  0  0
    1.2789    2.2500    2.6181 H   0  0  0  0  0  0
    0.5421    1.1623   -1.9797 H   0  0  0  0  0  0
   -0.8793    0.3925   -2.5096 H   0  0  0  0  0  0
    2.9555    4.0654    2.4072 H   0  0  0  0  0  0
    3.1104    3.7222    0.6991 H   0  0  0  0  0  0
   -0.9500    2.8577   -2.9815 H   0  0  0  0  0  0
   -0.8726    3.1941   -1.2630 H   0  0  0  0  0  0
    3.8233    1.8757    3.0199 H   0  0  0  0  0  0
    4.9191    2.5688    1.8458 H   0  0  0  0  0  0
    1.5460   -0.7457   -0.9167 H   0  0  0  0  0  0
    5.7397    0.2430    1.5452 H   0  0  0  0  0  0
   -3.9012   -1.5006    0.6371 N   0  3  0  0  0  0
   -4.5706   -0.7574    0.4960 H   0  0  0  0  0  0
  1 24  1  0  0  0
  2 25  1  0  0  0
  3 13  1  0  0  0
  3 19  1  0  0  0
  4 14  2  0  0  0
  5  6  1  0  0  0
  5 14  1  0  0  0
  5 16  1  0  0  0
  6  7  1  0  0  0
  6 13  1  0  0  0
  6 26  1  0  0  0
  7 27  1  0  0  0
  7 28  1  0  0  0
  7 52  1  0  0  0
  8 14  1  0  0  0
  8 15  1  0  0  0
  8 17  1  0  0  0
  8 29  1  0  0  0
  9 11  1  0  0  0
  9 30  1  0  0  0
  9 31  1  0  0  0
  9 52  1  0  0  0
 10 12  1  0  0  0
 10 32  1  0  0  0
 10 33  1  0  0  0
 10 52  1  0  0  0
 11 12  1  0  0  0
 11 36  1  0  0  0
 11 37  1  0  0  0
 12 38  1  0  0  0
 12 39  1  0  0  0
 13 34  1  0  0  0
 13 35  1  0  0  0
 15 18  1  0  0  0
 15 40  1  0  0  0
 15 41  1  0  0  0
 16 19  1  0  0  0
 16 42  1  0  0  0
 16 43  1  0  0  0
 17 21  1  0  0  0
 17 22  2  0  0  0
 18 20  1  0  0  0
 18 44  1  0  0  0
 18 45  1  0  0  0
 19 46  1  0  0  0
 19 47  1  0  0  0
 20 21  1  0  0  0
 20 48  1  0  0  0
 20 49  1  0  0  0
 21 23  2  0  0  0
 22 24  1  0  0  0
 22 50  1  0  0  0
 23 25  1  0  0  0
 23 51  1  0  0  0
 24 25  2  0  0  0
 52 53  1  0  0  0
M  CHG  1  52   1
M  END
> <LID>
L004492

> <PC_CID>
18915140

> <Names>


> <CAS_Numbers>


$$$$
18939001
                    3D
 Structure written by MMmdl.
 50 52  0  0  1  0            999 V2000
   -2.9769    2.4396   -1.4500 Cl  0  0  0  0  0  0
   -4.6753    3.2322    1.0841 Cl  0  0  0  0  0  0
   -0.7626   -2.2723   -0.3121 O   0  0  0  0  0  0
   -0.3812    0.5228   -2.2821 O   0  0  0  0  0  0
   -0.2817   -0.9686   -0.5837 N   0  0  0  0  0  0
    2.1483   -1.0678   -1.1849 C   0  0  0  0  0  0
    1.0891   -0.7999   -0.0755 C   0  0  1  0  0  0
    3.7994   -2.1962    0.3354 C   0  0  0  0  0  0
    4.2891    0.0825   -0.4986 C   0  0  0  0  0  0
    5.2901   -2.5824    0.3998 C   0  0  0  0  0  0
    1.2445    0.5224    0.6770 C   0  0  0  0  0  0
    5.7435   -0.1756   -0.1411 C   0  0  0  0  0  0
    6.1949   -1.3716    0.2717 C   0  0  0  0  0  0
   -0.9252   -0.3361   -1.5913 C   0  0  0  0  0  0
    1.3929    1.7530   -0.0046 C   0  0  0  0  0  0
    1.2169    0.5217    2.0895 C   0  0  0  0  0  0
   -2.4244   -0.6042   -1.8158 C   0  0  0  0  0  0
    1.5190    2.9571    0.7141 C   0  0  0  0  0  0
    1.3434    1.7259    2.8084 C   0  0  0  0  0  0
   -3.2562   -0.1601   -0.6153 C   0  0  0  0  0  0
    1.4949    2.9444    2.1210 C   0  0  0  0  0  0
   -3.5463    1.2079   -0.3735 C   0  0  0  0  0  0
   -3.7527   -1.1405    0.2716 C   0  0  0  0  0  0
   -4.3121    1.5745    0.7574 C   0  0  0  0  0  0
   -4.5152   -0.7705    1.3941 C   0  0  0  0  0  0
   -4.7922    0.5862    1.6375 C   0  0  0  0  0  0
    2.0996   -0.3086   -1.9654 H   0  0  0  0  0  0
    1.8953   -2.0071   -1.6787 H   0  0  0  0  0  0
    1.2237   -1.5792    0.6758 H   0  0  0  0  0  0
    3.1987   -3.0899    0.1612 H   0  0  0  0  0  0
    3.4837   -1.7789    1.2930 H   0  0  0  0  0  0
    4.2438    0.7030   -1.3942 H   0  0  0  0  0  0
    3.8525    0.6460    0.3230 H   0  0  0  0  0  0
    5.5372   -3.2745   -0.4059 H   0  0  0  0  0  0
    5.5022   -3.0971    1.3374 H   0  0  0  0  0  0
    6.4207    0.6638   -0.2055 H   0  0  0  0  0  0
    7.2400   -1.5068    0.5098 H   0  0  0  0  0  0
    1.4222    1.7872   -1.0825 H   0  0  0  0  0  0
    1.0947   -0.4041    2.6327 H   0  0  0  0  0  0
   -2.7620   -0.0700   -2.7048 H   0  0  0  0  0  0
   -2.5933   -1.6598   -2.0307 H   0  0  0  0  0  0
    1.6343    3.8916    0.1849 H   0  0  0  0  0  0
    1.3212    1.7149    3.8882 H   0  0  0  0  0  0
   -1.3013   -2.4720   -1.0626 H   0  0  0  0  0  0
    1.5906    3.8684    2.6722 H   0  0  0  0  0  0
   -3.5463   -2.1864    0.0977 H   0  0  0  0  0  0
   -4.8870   -1.5276    2.0688 H   0  0  0  0  0  0
   -5.3772    0.8689    2.5005 H   0  0  0  0  0  0
    3.5643   -1.1958   -0.7362 N   0  3  2  0  0  0
    4.0319   -1.5870   -1.5417 H   0  0  0  0  0  0
  1 22  1  0  0  0
  2 24  1  0  0  0
  3  5  1  0  0  0
  3 44  1  0  0  0
  4 14  2  0  0  0
  5  7  1  0  0  0
  5 14  1  0  0  0
  6  7  1  0  0  0
  6 27  1  0  0  0
  6 28  1  0  0  0
  6 49  1  0  0  0
  7 11  1  0  0  0
  7 29  1  0  0  0
  8 10  1  0  0  0
  8 30  1  0  0  0
  8 31  1  0  0  0
  8 49  1  0  0  0
  9 12  1  0  0  0
  9 32  1  0  0  0
  9 33  1  0  0  0
  9 49  1  0  0  0
 10 13  1  0  0  0
 10 34  1  0  0  0
 10 35  1  0  0  0
 11 15  2  0  0  0
 11 16  1  0  0  0
 12 13  2  0  0  0
 12 36  1  0  0  0
 13 37  1  0  0  0
 14 17  1  0  0  0
 15 18  1  0  0  0
 15 38  1  0  0  0
 16 19  2  0  0  0
 16 39  1  0  0  0
 17 20  1  0  0  0
 17 40  1  0  0  0
 17 41  1  0  0  0
 18 21  2  0  0  0
 18 42  1  0  0  0
 19 21  1  0  0  0
 19 43  1  0  0  0
 20 22  2  0  0  0
 20 23  1  0  0  0
 21 45  1  0  0  0
 22 24  1  0  0  0
 23 25  2  0  0  0
 23 46  1  0  0  0
 24 26  2  0  0  0
 25 26  1  0  0  0
 25 47  1  0  0  0
 26 48  1  0  0  0
 49 50  1  0  0  0
M  CHG  1  49   1
M  END
> <LID>
L019023

> <PC_CID>
18939001

> <Names>


> <CAS_Numbers>


$$$$
15645964
                    3D
 Structure written by MMmdl.
 56 58  0  0  1  0            999 V2000
    4.8241   -2.5044    3.4373 Cl  0  0  0  0  0  0
    7.1153   -0.4800    2.5304 Cl  0  0  0  0  0  0
    1.1721    0.6192    0.4938 O   0  0  0  0  0  0
   -4.3313   -1.6263    0.7291 O   0  0  0  0  0  0
   -3.4256   -3.6139    0.1007 O   0  0  0  0  0  0
   -0.2412   -0.2877   -1.0226 N   0  0  0  0  0  0
   -2.6728   -1.5960   -0.8169 N   0  0  0  0  0  0
   -1.3894    0.5325   -0.5767 C   0  0  1  0  0  0
   -1.2851    1.9727   -1.1319 C   0  0  0  0  0  0
   -2.7506   -0.1289   -0.9197 C   0  0  0  0  0  0
   -2.4407    4.1719   -1.3188 C   0  0  0  0  0  0
   -2.3023    3.1373    0.8313 C   0  0  0  0  0  0
   -2.5833    5.2484   -0.2354 C   0  0  0  0  0  0
   -3.0044    4.4790    1.0112 C   0  0  0  0  0  0
   -0.5565   -1.2339   -2.1046 C   0  0  0  0  0  0
   -1.6439   -2.2292   -1.6520 C   0  0  0  0  0  0
    0.9653   -0.1980   -0.4064 C   0  0  0  0  0  0
   -3.4777   -2.3857    0.0148 C   0  0  0  0  0  0
    2.1030   -1.1436   -0.8387 C   0  0  0  0  0  0
    3.3568   -0.9820    0.0088 C   0  0  0  0  0  0
   -5.2315   -2.2360    1.6398 C   0  0  0  0  0  0
    3.5107   -1.7271    1.1971 C   0  0  0  0  0  0
    4.3736   -0.0891   -0.3896 C   0  0  0  0  0  0
    4.6689   -1.5797    1.9860 C   0  0  0  0  0  0
    5.5321    0.0594    0.3967 C   0  0  0  0  0  0
   -6.0679   -1.1510    2.3225 C   0  0  0  0  0  0
    5.6837   -0.6830    1.5844 C   0  0  0  0  0  0
   -1.3483    0.5699    0.5136 H   0  0  0  0  0  0
   -0.3156    2.4138   -0.8957 H   0  0  0  0  0  0
   -1.3481    1.9375   -2.2206 H   0  0  0  0  0  0
   -3.5362    0.3237   -0.3155 H   0  0  0  0  0  0
   -3.0243    0.1000   -1.9509 H   0  0  0  0  0  0
   -3.3138    4.1589   -1.9719 H   0  0  0  0  0  0
   -1.5668    4.3691   -1.9420 H   0  0  0  0  0  0
   -1.2640    3.2219    1.1575 H   0  0  0  0  0  0
   -2.7738    2.3419    1.4094 H   0  0  0  0  0  0
   -1.6165    5.7231   -0.0610 H   0  0  0  0  0  0
   -3.2925    6.0307   -0.5078 H   0  0  0  0  0  0
   -4.0861    4.3372    1.0146 H   0  0  0  0  0  0
   -2.7262    4.9835    1.9371 H   0  0  0  0  0  0
    0.2988   -1.7803   -2.4981 H   0  0  0  0  0  0
   -0.9260   -0.6535   -2.9513 H   0  0  0  0  0  0
   -1.1595   -3.0248   -1.0829 H   0  0  0  0  0  0
   -2.1104   -2.7016   -2.5173 H   0  0  0  0  0  0
    1.7655   -2.1784   -0.7665 H   0  0  0  0  0  0
    2.3552   -0.9549   -1.8830 H   0  0  0  0  0  0
    2.7359   -2.4123    1.5090 H   0  0  0  0  0  0
    4.2665    0.4870   -1.2972 H   0  0  0  0  0  0
   -5.8816   -2.9325    1.1085 H   0  0  0  0  0  0
   -4.6759   -2.8057    2.3859 H   0  0  0  0  0  0
    6.3064    0.7460    0.0872 H   0  0  0  0  0  0
   -6.7703   -1.5915    3.0302 H   0  0  0  0  0  0
   -5.4338   -0.4539    2.8708 H   0  0  0  0  0  0
   -6.6425   -0.5810    1.5921 H   0  0  0  0  0  0
   -2.3540    2.8656   -0.6220 N   0  3  0  0  0  0
   -3.2363    2.4051   -0.7950 H   0  0  0  0  0  0
  1 24  1  0  0  0
  2 27  1  0  0  0
  3 17  2  0  0  0
  4 18  1  0  0  0
  4 21  1  0  0  0
  5 18  2  0  0  0
  6  8  1  0  0  0
  6 15  1  0  0  0
  6 17  1  0  0  0
  7 10  1  0  0  0
  7 16  1  0  0  0
  7 18  1  0  0  0
  8  9  1  0  0  0
  8 10  1  0  0  0
  8 28  1  0  0  0
  9 29  1  0  0  0
  9 30  1  0  0  0
  9 55  1  0  0  0
 10 31  1  0  0  0
 10 32  1  0  0  0
 11 13  1  0  0  0
 11 33  1  0  0  0
 11 34  1  0  0  0
 11 55  1  0  0  0
 12 14  1  0  0  0
 12 35  1  0  0  0
 12 36  1  0  0  0
 12 55  1  0  0  0
 13 14  1  0  0  0
 13 37  1  0  0  0
 13 38  1  0  0  0
 14 39  1  0  0  0
 14 40  1  0  0  0
 15 16  1  0  0  0
 15 41  1  0  0  0
 15 42  1  0  0  0
 16 43  1  0  0  0
 16 44  1  0  0  0
 17 19  1  0  0  0
 19 20  1  0  0  0
 19 45  1  0  0  0
 19 46  1  0  0  0
 20 22  2  0  0  0
 20 23  1  0  0  0
 21 26  1  0  0  0
 21 49  1  0  0  0
 21 50  1  0  0  0
 22 24  1  0  0  0
 22 47  1  0  0  0
 23 25  2  0  0  0
 23 48  1  0  0  0
 24 27  2  0  0  0
 25 27  1  0  0  0
 25 51  1  0  0  0
 26 52  1  0  0  0
 26 53  1  0  0  0
 26 54  1  0  0  0
 55 56  1  0  0  0
M  CHG  1  55   1
M  END
> <LID>
L003490

> <PC_CID>
15645964

> <Names>


> <CAS_Numbers>


$$$$
10297514
                    3D
 Structure written by MMmdl.
 58 60  0  0  1  0            999 V2000
   -7.0592    2.2910    0.7915 Cl  0  0  0  0  0  0
   -8.1192   -0.3236   -0.6954 Cl  0  0  0  0  0  0
   -1.7920    0.5282   -0.4647 O   0  0  0  0  0  0
    5.3901   -3.0444   -1.4930 O   0  0  0  0  0  0
   -0.2619    0.7293    1.2009 N   0  0  0  0  0  0
    3.7152   -2.5670   -0.0155 N   0  0  0  0  0  0
    1.9289    4.0784   -0.8756 C   0  0  0  0  0  0
    3.8118    2.7340   -0.1997 C   0  0  0  0  0  0
    2.9199    3.9693   -2.0403 C   0  0  0  0  0  0
    4.2443    3.6073   -1.3746 C   0  0  0  0  0  0
    1.6289    2.4362    1.0679 C   0  0  0  0  0  0
    0.7274    1.4017    0.3181 C   0  0  1  0  0  0
    1.5032    0.3907   -0.5231 C   0  0  0  0  0  0
   -1.4859    0.3802    0.7207 C   0  0  0  0  0  0
    0.1178    0.4489    2.5954 C   0  0  0  0  0  0
    2.2569   -0.6396    0.0826 C   0  0  0  0  0  0
    1.4709    0.4837   -1.9310 C   0  0  0  0  0  0
   -2.5327   -0.2070    1.6907 C   0  0  0  0  0  0
    2.9906   -1.5545   -0.7005 C   0  0  0  0  0  0
    2.1852   -0.4355   -2.7206 C   0  0  0  0  0  0
    2.9409   -1.4540   -2.1111 C   0  0  0  0  0  0
   -3.9333   -0.2311    1.0954 C   0  0  0  0  0  0
   -4.7678    0.9019    1.1998 C   0  0  0  0  0  0
   -4.4069   -1.3862    0.4385 C   0  0  0  0  0  0
    4.8076   -3.2362   -0.4266 C   0  0  0  0  0  0
   -6.0647    0.8853    0.6490 C   0  0  0  0  0  0
   -5.7026   -1.4053   -0.1122 C   0  0  0  0  0  0
   -6.5341   -0.2726   -0.0096 C   0  0  0  0  0  0
    5.3463   -4.2791    0.5467 C   0  0  0  0  0  0
    1.8420    5.1162   -0.5524 H   0  0  0  0  0  0
    0.9346    3.7618   -1.1809 H   0  0  0  0  0  0
    3.7047    1.7085   -0.5422 H   0  0  0  0  0  0
    4.5446    2.7343    0.6077 H   0  0  0  0  0  0
    2.2767    1.9456    1.7928 H   0  0  0  0  0  0
    0.9835    3.1035    1.6405 H   0  0  0  0  0  0
    2.6162    3.1621   -2.7080 H   0  0  0  0  0  0
    2.9793    4.8837   -2.6314 H   0  0  0  0  0  0
    4.7347    4.5104   -1.0084 H   0  0  0  0  0  0
    4.9339    3.0987   -2.0493 H   0  0  0  0  0  0
    0.1403    1.9959   -0.3789 H   0  0  0  0  0  0
   -0.2694   -0.5080    2.9457 H   0  0  0  0  0  0
    1.1925    0.3812    2.7434 H   0  0  0  0  0  0
   -0.2616    1.2310    3.2539 H   0  0  0  0  0  0
    2.2906   -0.7245    1.1575 H   0  0  0  0  0  0
    0.8942    1.2586   -2.4146 H   0  0  0  0  0  0
   -2.2431   -1.2229    1.9619 H   0  0  0  0  0  0
   -2.5631    0.3773    2.6111 H   0  0  0  0  0  0
    2.1491   -0.3630   -3.7976 H   0  0  0  0  0  0
    3.4623   -2.1559   -2.7437 H   0  0  0  0  0  0
    3.4053   -2.7644    0.9247 H   0  0  0  0  0  0
   -4.4120    1.7902    1.7010 H   0  0  0  0  0  0
   -3.7765   -2.2592    0.3512 H   0  0  0  0  0  0
   -6.0585   -2.2921   -0.6158 H   0  0  0  0  0  0
    6.2100   -4.7938    0.1243 H   0  0  0  0  0  0
    5.6541   -3.8068    1.4800 H   0  0  0  0  0  0
    4.5822   -5.0241    0.7699 H   0  0  0  0  0  0
    2.5205    3.3056    0.2450 N   0  3  0  0  0  0
    2.8097    4.0266    0.8908 H   0  0  0  0  0  0
  1 26  1  0  0  0
  2 28  1  0  0  0
  3 14  2  0  0  0
  4 25  2  0  0  0
  5 12  1  0  0  0
  5 14  1  0  0  0
  5 15  1  0  0  0
  6 19  1  0  0  0
  6 25  1  0  0  0
  6 50  1  0  0  0
  7  9  1  0  0  0
  7 30  1  0  0  0
  7 31  1  0  0  0
  7 57  1  0  0  0
  8 10  1  0  0  0
  8 32  1  0  0  0
  8 33  1  0  0  0
  8 57  1  0  0  0
  9 10  1  0  0  0
  9 36  1  0  0  0
  9 37  1  0  0  0
 10 38  1  0  0  0
 10 39  1  0  0  0
 11 12  1  0  0  0
 11 34  1  0  0  0
 11 35  1  0  0  0
 11 57  1  0  0  0
 12 13  1  0  0  0
 12 40  1  0  0  0
 13 16  2  0  0  0
 13 17  1  0  0  0
 14 18  1  0  0  0
 15 41  1  0  0  0
 15 42  1  0  0  0
 15 43  1  0  0  0
 16 19  1  0  0  0
 16 44  1  0  0  0
 17 20  2  0  0  0
 17 45  1  0  0  0
 18 22  1  0  0  0
 18 46  1  0  0  0
 18 47  1  0  0  0
 19 21  2  0  0  0
 20 21  1  0  0  0
 20 48  1  0  0  0
 21 49  1  0  0  0
 22 23  2  0  0  0
 22 24  1  0  0  0
 23 26  1  0  0  0
 23 51  1  0  0  0
 24 27  2  0  0  0
 24 52  1  0  0  0
 25 29  1  0  0  0
 26 28  2  0  0  0
 27 28  1  0  0  0
 27 53  1  0  0  0
 29 54  1  0  0  0
 29 55  1  0  0  0
 29 56  1  0  0  0
 57 58  1  0  0  0
M  CHG  1  57   1
M  END
> <LID>
L005619

> <PC_CID>
10297514

> <Names>


> <CAS_Numbers>
136328-91-1;136329-17-4

$$$$
15645960
                    3D
 Structure written by MMmdl.
 53 55  0  0  1  0            999 V2000
   -4.9995    2.4875    2.9605 Cl  0  0  0  0  0  0
   -7.1322    0.4735    1.7094 Cl  0  0  0  0  0  0
   -0.9556   -0.5796    0.5211 O   0  0  0  0  0  0
    4.4083    1.6158    1.5826 O   0  0  0  0  0  0
    0.6472    0.3302   -0.7910 N   0  0  0  0  0  0
    3.0690    1.6051   -0.2455 N   0  0  0  0  0  0
    1.7220   -0.5040   -0.2115 C   0  0  1  0  0  0
    1.6685   -1.9432   -0.7771 C   0  0  0  0  0  0
    3.1200    0.1415   -0.3979 C   0  0  0  0  0  0
    2.8105   -4.1570   -0.8227 C   0  0  0  0  0  0
    2.4184   -3.1210    1.2953 C   0  0  0  0  0  0
    2.7994   -5.2358    0.2677 C   0  0  0  0  0  0
    3.0729   -4.4729    1.5586 C   0  0  0  0  0  0
    1.1109    1.2928   -1.8017 C   0  0  0  0  0  0
    2.1379    2.2642   -1.1835 C   0  0  0  0  0  0
   -0.6297    0.2429   -0.3380 C   0  0  0  0  0  0
    3.7813    2.2402    0.7243 C   0  0  0  0  0  0
   -1.6974    1.1966   -0.9087 C   0  0  0  0  0  0
   -3.0576    1.0201   -0.2490 C   0  0  0  0  0  0
    3.7853    3.6990    0.6451 C   0  0  0  0  0  0
   -3.3804    1.7467    0.9167 C   0  0  0  0  0  0
   -4.0046    0.1317   -0.8001 C   0  0  0  0  0  0
    4.2512    4.4413    1.6647 C   0  0  0  0  0  0
   -4.6377    1.5854    1.5320 C   0  0  0  0  0  0
   -5.2619   -0.0307   -0.1874 C   0  0  0  0  0  0
   -5.5823    0.6932    0.9780 C   0  0  0  0  0  0
    1.5519   -0.5389    0.8663 H   0  0  0  0  0  0
    0.6721   -2.3727   -0.6634 H   0  0  0  0  0  0
    1.8660   -1.9092   -1.8497 H   0  0  0  0  0  0
    3.8362   -0.3364    0.2717 H   0  0  0  0  0  0
    3.4969   -0.0649   -1.4010 H   0  0  0  0  0  0
    3.7598   -4.1561   -1.3594 H   0  0  0  0  0  0
    2.0204   -4.3417   -1.5525 H   0  0  0  0  0  0
    1.3465   -3.1903    1.4898 H   0  0  0  0  0  0
    2.8260   -2.3326    1.9290 H   0  0  0  0  0  0
    1.8112   -5.6951    0.3187 H   0  0  0  0  0  0
    3.5250   -6.0290    0.0847 H   0  0  0  0  0  0
    4.1477   -4.3472    1.6972 H   0  0  0  0  0  0
    2.6740   -4.9735    2.4415 H   0  0  0  0  0  0
    1.5798    0.7278   -2.6087 H   0  0  0  0  0  0
    0.3194    1.8604   -2.2878 H   0  0  0  0  0  0
    1.5686    3.0282   -0.6514 H   0  0  0  0  0  0
    2.6974    2.7687   -1.9723 H   0  0  0  0  0  0
   -1.3753    2.2297   -0.7713 H   0  0  0  0  0  0
   -1.8005    1.0269   -1.9812 H   0  0  0  0  0  0
    3.4324    4.2216   -0.2309 H   0  0  0  0  0  0
   -2.6600    2.4283    1.3450 H   0  0  0  0  0  0
   -3.7685   -0.4304   -1.6919 H   0  0  0  0  0  0
    4.2595    5.5193    1.5985 H   0  0  0  0  0  0
    4.6291    3.9982    2.5754 H   0  0  0  0  0  0
   -5.9821   -0.7139   -0.6132 H   0  0  0  0  0  0
    2.6544   -2.8498   -0.1399 N   0  3  0  0  0  0
    3.5574   -2.4010   -0.2002 H   0  0  0  0  0  0
  1 24  1  0  0  0
  2 26  1  0  0  0
  3 16  2  0  0  0
  4 17  2  0  0  0
  5  7  1  0  0  0
  5 14  1  0  0  0
  5 16  1  0  0  0
  6  9  1  0  0  0
  6 15  1  0  0  0
  6 17  1  0  0  0
  7  8  1  0  0  0
  7  9  1  0  0  0
  7 27  1  0  0  0
  8 28  1  0  0  0
  8 29  1  0  0  0
  8 52  1  0  0  0
  9 30  1  0  0  0
  9 31  1  0  0  0
 10 12  1  0  0  0
 10 32  1  0  0  0
 10 33  1  0  0  0
 10 52  1  0  0  0
 11 13  1  0  0  0
 11 34  1  0  0  0
 11 35  1  0  0  0
 11 52  1  0  0  0
 12 13  1  0  0  0
 12 36  1  0  0  0
 12 37  1  0  0  0
 13 38  1  0  0  0
 13 39  1  0  0  0
 14 15  1  0  0  0
 14 40  1  0  0  0
 14 41  1  0  0  0
 15 42  1  0  0  0
 15 43  1  0  0  0
 16 18  1  0  0  0
 17 20  1  0  0  0
 18 19  1  0  0  0
 18 44  1  0  0  0
 18 45  1  0  0  0
 19 21  2  0  0  0
 19 22  1  0  0  0
 20 23  2  0  0  0
 20 46  1  0  0  0
 21 24  1  0  0  0
 21 47  1  0  0  0
 22 25  2  0  0  0
 22 48  1  0  0  0
 23 49  1  0  0  0
 23 50  1  0  0  0
 24 26  2  0  0  0
 25 26  1  0  0  0
 25 51  1  0  0  0
 52 53  1  0  0  0
M  CHG  1  52   1
M  END
> <LID>
L003486

> <PC_CID>
15645960

> <Names>


> <CAS_Numbers>


$$$$
10414035
                    3D
 Structure written by MMmdl.
 76 80  0  0  1  0            999 V2000
    2.8244    1.2268    1.8379 O   0  0  0  0  0  0
    5.5606    2.2977    0.3606 O   0  0  0  0  0  0
    7.4250    0.9548    0.3790 O   0  0  0  0  0  0
    3.3505   -2.0032    0.4556 N   0  0  0  0  0  0
    4.5136   -0.2503    1.4555 N   0  0  0  0  0  0
    2.3811   -0.9286    0.7587 C   0  0  0  0  0  0
    1.2860   -1.3923    1.7638 C   0  0  0  0  0  0
    1.7398   -0.3410   -0.5330 C   0  0  0  0  0  0
    0.1290   -0.3873    1.9314 C   0  0  0  0  0  0
    0.5642    0.6190   -0.2639 C   0  0  0  0  0  0
    3.2472    0.1492    1.4193 C   0  0  0  0  0  0
    4.6838   -1.5735    0.8957 C   0  0  0  0  0  0
   -1.6803    0.8203    0.7727 C   0  0  0  0  0  0
    3.1459   -3.2222   -0.1365 C   0  0  0  0  0  0
    5.6563    0.5105    1.9530 C   0  0  0  0  0  0
   -2.6046    0.7408   -0.4592 C   0  0  0  0  0  0
   -3.9108    1.5531   -0.2979 C   0  0  0  0  0  0
    4.2346   -4.1161   -0.3245 C   0  0  0  0  0  0
    1.8711   -3.6564   -0.5866 C   0  0  0  0  0  0
    6.3204    1.2817    0.8127 C   0  0  0  0  0  0
   -4.7212    1.6472   -1.5878 C   0  0  0  0  0  0
   -4.7726    1.0900    0.8732 C   0  0  0  0  0  0
    4.0596   -5.3756   -0.9292 C   0  0  0  0  0  0
    1.6928   -4.9154   -1.1918 C   0  0  0  0  0  0
    2.7869   -5.7785   -1.3646 C   0  0  0  0  0  0
   -4.9900    0.5021   -2.3723 C   0  0  0  0  0  0
   -5.1603    2.0140    1.8685 C   0  0  0  0  0  0
   -5.2233    2.8998   -2.0054 C   0  0  0  0  0  0
   -5.1913   -0.2556    0.9803 C   0  0  0  0  0  0
    5.9851    3.0798   -0.7462 C   0  0  0  0  0  0
   -5.7437    0.6107   -3.5571 C   0  0  0  0  0  0
   -5.9517    1.5986    2.9569 C   0  0  0  0  0  0
   -5.9769    3.0081   -3.1903 C   0  0  0  0  0  0
   -5.9827   -0.6706    2.0688 C   0  0  0  0  0  0
   -6.2368    1.8637   -3.9673 C   0  0  0  0  0  0
   -6.3627    0.2561    3.0579 C   0  0  0  0  0  0
    5.5515    2.4248   -2.0642 C   0  0  0  0  0  0
    0.8540   -2.3472    1.4796 H   0  0  0  0  0  0
    1.7350   -1.5809    2.7406 H   0  0  0  0  0  0
    2.4979    0.1841   -1.1172 H   0  0  0  0  0  0
    1.3825   -1.1211   -1.1988 H   0  0  0  0  0  0
    0.4533    0.5070    2.4640 H   0  0  0  0  0  0
   -0.6385   -0.8487    2.5542 H   0  0  0  0  0  0
    0.1202    0.8886   -1.2212 H   0  0  0  0  0  0
    0.9115    1.5530    0.1780 H   0  0  0  0  0  0
    5.3786   -1.5342    0.0550 H   0  0  0  0  0  0
    5.0808   -2.2461    1.6577 H   0  0  0  0  0  0
   -2.2372    0.4645    1.6403 H   0  0  0  0  0  0
   -1.4077    1.8545    0.9892 H   0  0  0  0  0  0
    5.3401    1.2080    2.7296 H   0  0  0  0  0  0
    6.3800   -0.1688    2.4043 H   0  0  0  0  0  0
   -2.0793    1.1229   -1.3341 H   0  0  0  0  0  0
   -2.8263   -0.3047   -0.6728 H   0  0  0  0  0  0
   -3.5928    2.5716   -0.0694 H   0  0  0  0  0  0
    5.2354   -3.8627   -0.0106 H   0  0  0  0  0  0
    0.9897   -3.0479   -0.4870 H   0  0  0  0  0  0
    4.9064   -6.0336   -1.0585 H   0  0  0  0  0  0
    0.7111   -5.2190   -1.5245 H   0  0  0  0  0  0
    2.6508   -6.7444   -1.8287 H   0  0  0  0  0  0
   -4.6254   -0.4687   -2.0731 H   0  0  0  0  0  0
   -4.8537    3.0477    1.8030 H   0  0  0  0  0  0
   -5.0351    3.7859   -1.4170 H   0  0  0  0  0  0
   -4.9101   -0.9783    0.2294 H   0  0  0  0  0  0
    5.5266    4.0651   -0.6615 H   0  0  0  0  0  0
    7.0648    3.2352   -0.7264 H   0  0  0  0  0  0
   -5.9451   -0.2687   -4.1510 H   0  0  0  0  0  0
   -6.2445    2.3109    3.7143 H   0  0  0  0  0  0
   -6.3570    3.9698   -3.5022 H   0  0  0  0  0  0
   -6.2995   -1.7004    2.1442 H   0  0  0  0  0  0
   -6.8154    1.9464   -4.8756 H   0  0  0  0  0  0
   -6.9704   -0.0621    3.8923 H   0  0  0  0  0  0
    5.8392    3.0418   -2.9154 H   0  0  0  0  0  0
    6.0141    1.4458   -2.1923 H   0  0  0  0  0  0
    4.4699    2.2919   -2.0976 H   0  0  0  0  0  0
   -0.4549   -0.0057    0.6200 N   0  3  0  0  0  0
   -0.7453   -0.8671    0.1796 H   0  0  0  0  0  0
  1 11  2  0  0  0
  2 20  1  0  0  0
  2 30  1  0  0  0
  3 20  2  0  0  0
  4  6  1  0  0  0
  4 12  1  0  0  0
  4 14  1  0  0  0
  5 11  1  0  0  0
  5 12  1  0  0  0
  5 15  1  0  0  0
  6  7  1  0  0  0
  6  8  1  0  0  0
  6 11  1  0  0  0
  7  9  1  0  0  0
  7 38  1  0  0  0
  7 39  1  0  0  0
  8 10  1  0  0  0
  8 40  1  0  0  0
  8 41  1  0  0  0
  9 42  1  0  0  0
  9 43  1  0  0  0
  9 75  1  0  0  0
 10 44  1  0  0  0
 10 45  1  0  0  0
 10 75  1  0  0  0
 12 46  1  0  0  0
 12 47  1  0  0  0
 13 16  1  0  0  0
 13 48  1  0  0  0
 13 49  1  0  0  0
 13 75  1  0  0  0
 14 18  2  0  0  0
 14 19  1  0  0  0
 15 20  1  0  0  0
 15 50  1  0  0  0
 15 51  1  0  0  0
 16 17  1  0  0  0
 16 52  1  0  0  0
 16 53  1  0  0  0
 17 21  1  0  0  0
 17 22  1  0  0  0
 17 54  1  0  0  0
 18 23  1  0  0  0
 18 55  1  0  0  0
 19 24  2  0  0  0
 19 56  1  0  0  0
 21 26  2  0  0  0
 21 28  1  0  0  0
 22 27  2  0  0  0
 22 29  1  0  0  0
 23 25  2  0  0  0
 23 57  1  0  0  0
 24 25  1  0  0  0
 24 58  1  0  0  0
 25 59  1  0  0  0
 26 31  1  0  0  0
 26 60  1  0  0  0
 27 32  1  0  0  0
 27 61  1  0  0  0
 28 33  2  0  0  0
 28 62  1  0  0  0
 29 34  2  0  0  0
 29 63  1  0  0  0
 30 37  1  0  0  0
 30 64  1  0  0  0
 30 65  1  0  0  0
 31 35  2  0  0  0
 31 66  1  0  0  0
 32 36  2  0  0  0
 32 67  1  0  0  0
 33 35  1  0  0  0
 33 68  1  0  0  0
 34 36  1  0  0  0
 34 69  1  0  0  0
 35 70  1  0  0  0
 36 71  1  0  0  0
 37 72  1  0  0  0
 37 73  1  0  0  0
 37 74  1  0  0  0
 75 76  1  0  0  0
M  CHG  1  75   1
M  END
> <LID>
L022587

> <PC_CID>
10414035

> <Names>


> <CAS_Numbers>


$$$$
133023
                    3D
 Structure written by MMmdl.
 55 57  0  0  1  0            999 V2000
   -6.1080   -0.9734    2.4523 Cl  0  0  0  0  0  0
   -6.9746    1.5581    0.7173 Cl  0  0  0  0  0  0
    3.8221    5.1997    0.9111 O   0  0  0  0  0  0
   -0.8025   -0.0448    1.0151 O   0  0  0  0  0  0
    0.6193   -1.2165   -0.3145 N   0  0  0  0  0  0
    3.0078   -2.8451   -0.1341 C   0  0  0  0  0  0
    1.8086   -0.5669    0.3085 C   0  0  1  0  0  0
    3.1410   -1.3445    0.1473 C   0  0  0  0  0  0
    2.1736   -2.9405   -1.4159 C   0  0  0  0  0  0
    1.9454    0.9050   -0.1746 C   0  0  0  0  0  0
    0.7741   -2.3179   -1.2926 C   0  0  0  0  0  0
    4.4049   -3.4428   -0.3909 C   0  0  0  0  0  0
    2.3669   -3.6065    1.0470 C   0  0  0  0  0  0
    2.5595    3.1061    0.8163 C   0  0  0  0  0  0
    4.3331    1.6652    0.1325 C   0  0  0  0  0  0
    3.8735    3.8081    1.1458 C   0  0  1  0  0  0
    4.8653    3.1020    0.2272 C   0  0  0  0  0  0
   -0.6274   -0.8541    0.1007 C   0  0  0  0  0  0
   -1.8654   -1.4545   -0.6005 C   0  0  0  0  0  0
   -3.1471   -0.7049   -0.2655 C   0  0  0  0  0  0
   -3.9562   -1.1263    0.8110 C   0  0  0  0  0  0
   -3.5352    0.4143   -1.0315 C   0  0  0  0  0  0
   -5.1423   -0.4336    1.1252 C   0  0  0  0  0  0
   -4.7204    1.1077   -0.7199 C   0  0  0  0  0  0
   -5.5261    0.6878    0.3569 C   0  0  0  0  0  0
    1.6224   -0.5510    1.3847 H   0  0  0  0  0  0
    3.6990   -0.9123   -0.6837 H   0  0  0  0  0  0
    3.7636   -1.1864    1.0290 H   0  0  0  0  0  0
    2.0825   -3.9796   -1.7354 H   0  0  0  0  0  0
    2.7030   -2.4346   -2.2251 H   0  0  0  0  0  0
    2.1851    0.9482   -1.2380 H   0  0  0  0  0  0
    0.9823    1.4065   -0.0803 H   0  0  0  0  0  0
    0.4455   -1.9831   -2.2774 H   0  0  0  0  0  0
    0.1105   -3.1352   -1.0068 H   0  0  0  0  0  0
    4.3432   -4.5042   -0.6343 H   0  0  0  0  0  0
    4.9096   -2.9475   -1.2213 H   0  0  0  0  0  0
    5.0462   -3.3449    0.4858 H   0  0  0  0  0  0
    2.2606   -4.6673    0.8178 H   0  0  0  0  0  0
    2.9813   -3.5265    1.9444 H   0  0  0  0  0  0
    1.3766   -3.2325    1.3040 H   0  0  0  0  0  0
    1.8101    3.2248    1.5999 H   0  0  0  0  0  0
    2.1460    3.5058   -0.1120 H   0  0  0  0  0  0
    4.4157    1.3044   -0.8933 H   0  0  0  0  0  0
    4.9148    0.9956    0.7666 H   0  0  0  0  0  0
    4.1390    3.6259    2.1883 H   0  0  0  0  0  0
    5.8903    3.1510    0.5964 H   0  0  0  0  0  0
    4.8489    3.5562   -0.7650 H   0  0  0  0  0  0
   -1.7357   -1.4356   -1.6829 H   0  0  0  0  0  0
   -1.9786   -2.4984   -0.3062 H   0  0  0  0  0  0
    3.6243    5.3529   -0.0005 H   0  0  0  0  0  0
   -3.6650   -1.9817    1.4030 H   0  0  0  0  0  0
   -2.9237    0.7460   -1.8579 H   0  0  0  0  0  0
   -5.0114    1.9649   -1.3092 H   0  0  0  0  0  0
    2.9291    1.6880    0.6194 N   0  3  2  0  0  0
    2.9426    1.2874    1.5468 H   0  0  0  0  0  0
  1 23  1  0  0  0
  2 25  1  0  0  0
  3 16  1  0  0  0
  3 50  1  0  0  0
  4 18  2  0  0  0
  5  7  1  0  0  0
  5 11  1  0  0  0
  5 18  1  0  0  0
  6  8  1  0  0  0
  6  9  1  0  0  0
  6 12  1  0  0  0
  6 13  1  0  0  0
  7  8  1  0  0  0
  7 10  1  0  0  0
  7 26  1  0  0  0
  8 27  1  0  0  0
  8 28  1  0  0  0
  9 11  1  0  0  0
  9 29  1  0  0  0
  9 30  1  0  0  0
 10 31  1  0  0  0
 10 32  1  0  0  0
 10 54  1  0  0  0
 11 33  1  0  0  0
 11 34  1  0  0  0
 12 35  1  0  0  0
 12 36  1  0  0  0
 12 37  1  0  0  0
 13 38  1  0  0  0
 13 39  1  0  0  0
 13 40  1  0  0  0
 14 16  1  0  0  0
 14 41  1  0  0  0
 14 42  1  0  0  0
 14 54  1  0  0  0
 15 17  1  0  0  0
 15 43  1  0  0  0
 15 44  1  0  0  0
 15 54  1  0  0  0
 16 17  1  0  0  0
 16 45  1  0  0  0
 17 46  1  0  0  0
 17 47  1  0  0  0
 18 19  1  0  0  0
 19 20  1  0  0  0
 19 48  1  0  0  0
 19 49  1  0  0  0
 20 21  2  0  0  0
 20 22  1  0  0  0
 21 23  1  0  0  0
 21 51  1  0  0  0
 22 24  2  0  0  0
 22 52  1  0  0  0
 23 25  2  0  0  0
 24 25  1  0  0  0
 24 53  1  0  0  0
 54 55  1  0  0  0
M  CHG  1  54   1
M  END
> <LID>
L005487

> <PC_CID>
133023

> <Names>


> <CAS_Numbers>


$$$$
22992921
                    3D
 Structure written by MMmdl.
 61 63  0  0  1  0            999 V2000
   -5.3826    4.3147    0.9672 O   0  0  0  0  0  0
    4.7422   -2.6118    0.2954 O   0  0  0  0  0  0
    7.3477    1.6671    0.5059 O   0  0  0  0  0  0
   -0.8025   -0.0897   -1.7416 N   0  0  0  0  0  0
    5.1945   -0.4063    0.5488 N   0  0  0  0  0  0
   -3.8881    2.6728   -0.0607 C   0  0  0  0  0  0
   -5.5871    1.2892   -1.0170 C   0  0  0  0  0  0
   -5.2000    3.4667   -0.1465 C   0  0  1  0  0  0
   -6.2833    2.3958   -0.2313 C   0  0  0  0  0  0
   -3.2109    0.7295   -1.4936 C   0  0  0  0  0  0
   -1.8469    0.4106   -0.8245 C   0  0  1  0  0  0
   -2.0469   -0.5049    0.3812 C   0  0  0  0  0  0
    0.4401   -0.3987   -1.2807 C   0  0  0  0  0  0
   -1.1824   -0.4218   -3.1167 C   0  0  0  0  0  0
   -2.3700   -1.8679    0.2003 C   0  0  0  0  0  0
   -1.9155    0.0095    1.6892 C   0  0  0  0  0  0
    1.1169   -1.5563   -1.7342 C   0  0  0  0  0  0
    1.0819    0.4165   -0.3179 C   0  0  0  0  0  0
   -2.5597   -2.7065    1.3155 C   0  0  0  0  0  0
   -2.1059   -0.8295    2.8041 C   0  0  0  0  0  0
   -2.4284   -2.1873    2.6176 C   0  0  0  0  0  0
    2.3965   -1.8842   -1.2469 C   0  0  0  0  0  0
    2.3622    0.0909    0.1696 C   0  0  0  0  0  0
    3.0368   -1.0586   -0.2990 C   0  0  0  0  0  0
    4.3933   -1.4330    0.2275 C   0  0  0  0  0  0
    6.5632   -0.5424    1.0293 C   0  0  0  0  0  0
    7.0811    0.7947    1.5851 C   0  0  1  0  0  0
    8.3853    0.6218    2.3747 C   0  0  0  0  0  0
   -3.5304    2.6027    0.9674 H   0  0  0  0  0  0
   -3.1066    3.1585   -0.6470 H   0  0  0  0  0  0
   -5.6142    1.5248   -2.0825 H   0  0  0  0  0  0
   -6.0544    0.3143   -0.8742 H   0  0  0  0  0  0
   -5.2057    4.0629   -1.0604 H   0  0  0  0  0  0
   -6.5412    2.0311    0.7646 H   0  0  0  0  0  0
   -7.1972    2.7491   -0.7101 H   0  0  0  0  0  0
   -3.6377   -0.1852   -1.9081 H   0  0  0  0  0  0
   -3.0927    1.4320   -2.3195 H   0  0  0  0  0  0
   -1.4740    1.3618   -0.4462 H   0  0  0  0  0  0
   -6.1961    4.7853    0.8621 H   0  0  0  0  0  0
   -0.3156   -0.6673   -3.7306 H   0  0  0  0  0  0
   -1.8592   -1.2764   -3.1334 H   0  0  0  0  0  0
   -1.6661    0.4190   -3.6118 H   0  0  0  0  0  0
   -2.4700   -2.2745   -0.7955 H   0  0  0  0  0  0
   -1.6644    1.0486    1.8442 H   0  0  0  0  0  0
    0.6558   -2.2226   -2.4482 H   0  0  0  0  0  0
    0.6068    1.3092    0.0588 H   0  0  0  0  0  0
   -2.8047   -3.7486    1.1719 H   0  0  0  0  0  0
   -2.0025   -0.4319    3.8030 H   0  0  0  0  0  0
   -2.5728   -2.8309    3.4730 H   0  0  0  0  0  0
    2.8836   -2.7785   -1.6084 H   0  0  0  0  0  0
    2.8151    0.7334    0.9106 H   0  0  0  0  0  0
    4.8463    0.5327    0.4223 H   0  0  0  0  0  0
    6.5785   -1.2931    1.8215 H   0  0  0  0  0  0
    7.2072   -0.9120    0.2295 H   0  0  0  0  0  0
    6.3306    1.2494    2.2335 H   0  0  0  0  0  0
    9.1709    0.1871    1.7555 H   0  0  0  0  0  0
    8.7485    1.5781    2.7526 H   0  0  0  0  0  0
    8.2384   -0.0345    3.2328 H   0  0  0  0  0  0
    7.6608    2.4890    0.8520 H   0  0  0  0  0  0
   -4.1897    1.2996   -0.5360 N   0  3  1  0  0  0
   -4.1751    0.7090    0.2842 H   0  0  0  0  0  0
  1  8  1  0  0  0
  1 39  1  0  0  0
  2 25  2  0  0  0
  3 27  1  0  0  0
  3 59  1  0  0  0
  4 11  1  0  0  0
  4 13  1  0  0  0
  4 14  1  0  0  0
  5 25  1  0  0  0
  5 26  1  0  0  0
  5 52  1  0  0  0
  6  8  1  0  0  0
  6 29  1  0  0  0
  6 30  1  0  0  0
  6 60  1  0  0  0
  7  9  1  0  0  0
  7 31  1  0  0  0
  7 32  1  0  0  0
  7 60  1  0  0  0
  8  9  1  0  0  0
  8 33  1  0  0  0
  9 34  1  0  0  0
  9 35  1  0  0  0
 10 11  1  0  0  0
 10 36  1  0  0  0
 10 37  1  0  0  0
 10 60  1  0  0  0
 11 12  1  0  0  0
 11 38  1  0  0  0
 12 15  2  0  0  0
 12 16  1  0  0  0
 13 17  2  0  0  0
 13 18  1  0  0  0
 14 40  1  0  0  0
 14 41  1  0  0  0
 14 42  1  0  0  0
 15 19  1  0  0  0
 15 43  1  0  0  0
 16 20  2  0  0  0
 16 44  1  0  0  0
 17 22  1  0  0  0
 17 45  1  0  0  0
 18 23  2  0  0  0
 18 46  1  0  0  0
 19 21  2  0  0  0
 19 47  1  0  0  0
 20 21  1  0  0  0
 20 48  1  0  0  0
 21 49  1  0  0  0
 22 24  2  0  0  0
 22 50  1  0  0  0
 23 24  1  0  0  0
 23 51  1  0  0  0
 24 25  1  0  0  0
 26 27  1  0  0  0
 26 53  1  0  0  0
 26 54  1  0  0  0
 27 28  1  0  0  0
 27 55  1  0  0  0
 28 56  1  0  0  0
 28 57  1  0  0  0
 28 58  1  0  0  0
 60 61  1  0  0  0
M  CHG  1  60   1
M  END
> <LID>
L017855

> <PC_CID>
22992921

> <Names>


> <CAS_Numbers>


$$$$
44215689
                    3D
 Structure written by MMmdl.
 67 72  0  0  1  0            999 V2000
   -1.1496   -3.7400    2.7702 O   0  0  0  0  0  0
   -3.1617   -3.6754   -0.8284 O   0  0  0  0  0  0
   -4.0611   -6.3874   -1.2648 O   0  0  0  0  0  0
   -1.5665   -2.4623   -2.9521 O   0  0  0  0  0  0
   -2.4630   -4.2672    1.3803 C   0  0  1  0  0  0
   -1.4643   -5.1321    1.8578 C   0  0  1  0  0  0
   -0.3032   -5.3491    2.7232 C   0  0  1  0  0  0
   -3.4639   -4.5939    0.2357 C   0  0  2  0  0  0
   -3.2396   -4.3778    2.9301 C   0  0  0  0  0  0
   -1.2217   -3.7300    0.4471 C   0  0  0  0  0  0
   -2.1423   -6.5961    1.8414 C   0  0  0  0  0  0
    0.8327   -4.4483    1.9850 C   0  0  0  0  0  0
   -2.4570   -5.1007    4.2604 C   0  0  0  0  0  0
    0.2497   -3.7886    0.6323 C   0  0  0  0  0  0
   -2.4511   -7.0194    0.3999 C   0  0  0  0  0  0
   -3.3909   -6.0353   -0.2967 C   0  0  0  0  0  0
   -1.8304   -3.3688   -0.7470 C   0  0  0  0  0  0
   -0.0550   -4.9781    5.2503 C   0  0  0  0  0  0
    1.0176   -3.2619   -0.4242 C   0  0  0  0  0  0
   -1.0084   -2.8530   -1.7697 C   0  0  0  0  0  0
   -1.2937   -2.2555    2.7006 C   0  0  0  0  0  0
    0.3935   -2.7766   -1.5959 C   0  0  0  0  0  0
   -0.3366   -5.6957    6.5795 C   0  0  0  0  0  0
   -1.0974   -1.6538    4.0958 C   0  0  0  0  0  0
    0.5717   -5.2034    7.7114 C   0  0  0  0  0  0
   -1.3151   -0.1348    4.1230 C   0  0  0  0  0  0
   -1.1094    0.4430    5.5101 C   0  0  0  0  0  0
    0.1693    0.8830    5.9123 C   0  0  0  0  0  0
   -2.1941    0.5348    6.4076 C   0  0  0  0  0  0
    0.3613    1.4135    7.2030 C   0  0  0  0  0  0
   -2.0015    1.0654    7.6982 C   0  0  0  0  0  0
   -0.7240    1.5051    8.0960 C   0  0  0  0  0  0
    0.1491   -6.3306    2.5803 H   0  0  0  0  0  0
   -4.4865   -4.4109    0.5656 H   0  0  0  0  0  0
   -4.1861   -4.9039    2.8005 H   0  0  0  0  0  0
   -3.5979   -3.3951    3.2370 H   0  0  0  0  0  0
   -1.5321   -7.3957    2.2612 H   0  0  0  0  0  0
   -3.0785   -6.7203    2.3805 H   0  0  0  0  0  0
    1.2372   -3.6728    2.6389 H   0  0  0  0  0  0
    1.6846   -5.0736    1.7153 H   0  0  0  0  0  0
   -2.5917   -4.4403    5.1173 H   0  0  0  0  0  0
   -2.9921   -6.0084    4.5403 H   0  0  0  0  0  0
   -2.9040   -8.0112    0.3876 H   0  0  0  0  0  0
   -1.5282   -7.0827   -0.1772 H   0  0  0  0  0  0
   -0.1829   -3.9054    5.3670 H   0  0  0  0  0  0
    0.9877   -5.1420    4.9752 H   0  0  0  0  0  0
    2.0947   -3.2424   -0.3455 H   0  0  0  0  0  0
   -0.5451   -1.8044    2.0498 H   0  0  0  0  0  0
   -2.2607   -1.9296    2.3160 H   0  0  0  0  0  0
    1.0094   -2.3851   -2.3923 H   0  0  0  0  0  0
   -1.3761   -5.5500    6.8742 H   0  0  0  0  0  0
   -0.1996   -6.7703    6.4528 H   0  0  0  0  0  0
   -1.7844   -2.1278    4.7970 H   0  0  0  0  0  0
   -0.0867   -1.8727    4.4399 H   0  0  0  0  0  0
    0.3527   -5.7283    8.6416 H   0  0  0  0  0  0
    1.6230   -5.3707    7.4754 H   0  0  0  0  0  0
    0.4338   -4.1368    7.8917 H   0  0  0  0  0  0
   -0.9334   -2.1476   -3.5786 H   0  0  0  0  0  0
   -0.6316    0.3545    3.4276 H   0  0  0  0  0  0
   -2.3231    0.1061    3.7827 H   0  0  0  0  0  0
    1.0064    0.8136    5.2330 H   0  0  0  0  0  0
   -3.1762    0.1976    6.1095 H   0  0  0  0  0  0
    1.3412    1.7499    7.5081 H   0  0  0  0  0  0
   -2.8337    1.1350    8.3831 H   0  0  0  0  0  0
   -0.5765    1.9120    9.0856 H   0  0  0  0  0  0
   -0.9186   -5.4829    4.1581 N   0  3  2  0  0  0
   -0.9221   -6.4821    4.3046 H   0  0  0  0  0  0
  1  6  1  0  0  0
  1 21  1  0  0  0
  2  8  1  0  0  0
  2 17  1  0  0  0
  3 16  2  0  0  0
  4 20  1  0  0  0
  4 58  1  0  0  0
  5  6  1  0  0  0
  5  8  1  0  0  0
  5  9  1  0  0  0
  5 10  1  0  0  0
  6  7  1  0  0  0
  6 11  1  0  0  0
  7 12  1  0  0  0
  7 33  1  0  0  0
  7 66  1  0  0  0
  8 16  1  0  0  0
  8 34  1  0  0  0
  9 13  1  0  0  0
  9 35  1  0  0  0
  9 36  1  0  0  0
 10 14  2  0  0  0
 10 17  1  0  0  0
 11 15  1  0  0  0
 11 37  1  0  0  0
 11 38  1  0  0  0
 12 14  1  0  0  0
 12 39  1  0  0  0
 12 40  1  0  0  0
 13 41  1  0  0  0
 13 42  1  0  0  0
 13 66  1  0  0  0
 14 19  1  0  0  0
 15 16  1  0  0  0
 15 43  1  0  0  0
 15 44  1  0  0  0
 17 20  2  0  0  0
 18 23  1  0  0  0
 18 45  1  0  0  0
 18 46  1  0  0  0
 18 66  1  0  0  0
 19 22  2  0  0  0
 19 47  1  0  0  0
 20 22  1  0  0  0
 21 24  1  0  0  0
 21 48  1  0  0  0
 21 49  1  0  0  0
 22 50  1  0  0  0
 23 25  1  0  0  0
 23 51  1  0  0  0
 23 52  1  0  0  0
 24 26  1  0  0  0
 24 53  1  0  0  0
 24 54  1  0  0  0
 25 55  1  0  0  0
 25 56  1  0  0  0
 25 57  1  0  0  0
 26 27  1  0  0  0
 26 59  1  0  0  0
 26 60  1  0  0  0
 27 28  2  0  0  0
 27 29  1  0  0  0
 28 30  1  0  0  0
 28 61  1  0  0  0
 29 31  2  0  0  0
 29 62  1  0  0  0
 30 32  2  0  0  0
 30 63  1  0  0  0
 31 32  1  0  0  0
 31 64  1  0  0  0
 32 65  1  0  0  0
 66 67  1  0  0  0
M  CHG  1  66   1
M  END
> <LID>
L022102

> <PC_CID>
44215689

> <Names>


> <CAS_Numbers>


$$$$
3082718
                    3D
 Structure written by MMmdl.
 51 53  0  0  1  0            999 V2000
    5.7283   -0.1358   -2.4791 Cl  0  0  0  0  0  0
    6.5100    1.6212    0.0652 Cl  0  0  0  0  0  0
   -0.0999   -0.9395    1.5032 O   0  0  0  0  0  0
   -0.3640   -0.6814   -0.7393 N   0  0  0  0  0  0
   -2.5609    3.5233    0.8411 C   0  0  0  0  0  0
   -3.1343    2.7277   -1.3378 C   0  0  0  0  0  0
   -3.1744    4.6754    0.0349 C   0  0  0  0  0  0
   -3.9533    3.9881   -1.0809 C   0  0  0  0  0  0
   -1.4138    1.4804   -0.0119 C   0  0  0  0  0  0
   -1.6314    0.0809   -0.6478 C   0  0  2  0  0  0
   -2.7736   -0.7447   -0.0443 C   0  0  0  0  0  0
    0.2977   -1.1427    0.3560 C   0  0  0  0  0  0
    0.1445   -0.9050   -2.1000 C   0  0  0  0  0  0
   -3.4273   -1.6960   -0.8581 C   0  0  0  0  0  0
   -3.1855   -0.5963    1.3016 C   0  0  0  0  0  0
    1.5957   -1.9554    0.1954 C   0  0  0  0  0  0
   -4.4804   -2.4767   -0.3441 C   0  0  0  0  0  0
   -4.2382   -1.3774    1.8159 C   0  0  0  0  0  0
    2.8228   -1.0548    0.1563 C   0  0  0  0  0  0
   -4.8878   -2.3164    0.9932 C   0  0  0  0  0  0
    3.6296   -1.0043   -1.0004 C   0  0  0  0  0  0
    3.1808   -0.2834    1.2833 C   0  0  0  0  0  0
    4.7708   -0.1790   -1.0416 C   0  0  0  0  0  0
    4.3210    0.5417    1.2456 C   0  0  0  0  0  0
    5.1174    0.5986    0.0852 C   0  0  0  0  0  0
   -1.5338    3.7603    1.1234 H   0  0  0  0  0  0
   -3.1219    3.3457    1.7592 H   0  0  0  0  0  0
   -3.7209    1.9443   -1.8188 H   0  0  0  0  0  0
   -2.2899    2.9664   -1.9867 H   0  0  0  0  0  0
   -0.6232    2.0137   -0.5423 H   0  0  0  0  0  0
   -1.0686    1.3817    1.0171 H   0  0  0  0  0  0
   -3.7994    5.3302    0.6430 H   0  0  0  0  0  0
   -2.3791    5.2841   -0.3976 H   0  0  0  0  0  0
   -4.0644    4.6113   -1.9688 H   0  0  0  0  0  0
   -4.9505    3.7198   -0.7288 H   0  0  0  0  0  0
   -1.9769    0.2833   -1.6608 H   0  0  0  0  0  0
    0.1203   -1.9667   -2.3481 H   0  0  0  0  0  0
   -0.4236   -0.3897   -2.8738 H   0  0  0  0  0  0
    1.1692   -0.5490   -2.1968 H   0  0  0  0  0  0
   -3.1213   -1.8312   -1.8854 H   0  0  0  0  0  0
   -2.6955    0.1059    1.9588 H   0  0  0  0  0  0
    1.6946   -2.6244    1.0512 H   0  0  0  0  0  0
    1.5595   -2.6068   -0.6773 H   0  0  0  0  0  0
   -4.9745   -3.2003   -0.9758 H   0  0  0  0  0  0
   -4.5449   -1.2592    2.8449 H   0  0  0  0  0  0
   -5.6943   -2.9162    1.3889 H   0  0  0  0  0  0
    3.3744   -1.5994   -1.8652 H   0  0  0  0  0  0
    2.5809   -0.3211    2.1811 H   0  0  0  0  0  0
    4.5855    1.1314    2.1110 H   0  0  0  0  0  0
   -2.6453    2.3094   -0.0062 N   0  3  0  0  0  0
   -3.3781    1.7437    0.3993 H   0  0  0  0  0  0
  1 23  1  0  0  0
  2 25  1  0  0  0
  3 12  2  0  0  0
  4 10  1  0  0  0
  4 12  1  0  0  0
  4 13  1  0  0  0
  5  7  1  0  0  0
  5 26  1  0  0  0
  5 27  1  0  0  0
  5 50  1  0  0  0
  6  8  1  0  0  0
  6 28  1  0  0  0
  6 29  1  0  0  0
  6 50  1  0  0  0
  7  8  1  0  0  0
  7 32  1  0  0  0
  7 33  1  0  0  0
  8 34  1  0  0  0
  8 35  1  0  0  0
  9 10  1  0  0  0
  9 30  1  0  0  0
  9 31  1  0  0  0
  9 50  1  0  0  0
 10 11  1  0  0  0
 10 36  1  0  0  0
 11 14  2  0  0  0
 11 15  1  0  0  0
 12 16  1  0  0  0
 13 37  1  0  0  0
 13 38  1  0  0  0
 13 39  1  0  0  0
 14 17  1  0  0  0
 14 40  1  0  0  0
 15 18  2  0  0  0
 15 41  1  0  0  0
 16 19  1  0  0  0
 16 42  1  0  0  0
 16 43  1  0  0  0
 17 20  2  0  0  0
 17 44  1  0  0  0
 18 20  1  0  0  0
 18 45  1  0  0  0
 19 21  2  0  0  0
 19 22  1  0  0  0
 20 46  1  0  0  0
 21 23  1  0  0  0
 21 47  1  0  0  0
 22 24  2  0  0  0
 22 48  1  0  0  0
 23 25  2  0  0  0
 24 25  1  0  0  0
 24 49  1  0  0  0
 50 51  1  0  0  0
M  CHG  1  50   1
M  END
> <LID>
L001966

> <PC_CID>
3082718

> <Names>
ICI 199441

> <CAS_Numbers>
115199-84-3

$$$$
9955378
                    3D
 Structure written by MMmdl.
 54 57  0  0  1  0            999 V2000
    6.4089    0.4028   -1.5494 Cl  0  0  0  0  0  0
    7.3398    0.4139    1.5007 Cl  0  0  0  0  0  0
   -3.9159   -1.6949   -0.0592 O   0  0  0  0  0  0
   -3.4785   -1.6482    2.1691 O   0  0  0  0  0  0
    1.0898    0.6432    0.3024 O   0  0  0  0  0  0
   -0.5069   -0.7865   -0.4707 N   0  0  0  0  0  0
   -1.6481    0.1631   -0.5465 C   0  0  1  0  0  0
   -2.9330   -1.4707    0.9020 C   0  0  0  0  0  0
   -2.4468   -0.0084    0.7709 C   0  0  0  0  0  0
   -1.8002   -2.5026    0.7104 C   0  0  0  0  0  0
   -1.2684    1.6312   -0.8974 C   0  0  0  0  0  0
   -0.9985   -2.1724   -0.5629 C   0  0  0  0  0  0
   -1.9277    3.6241   -2.2309 C   0  0  0  0  0  0
   -3.4097    2.9050   -0.4979 C   0  0  0  0  0  0
   -2.6596    4.8416   -1.6609 C   0  0  0  0  0  0
   -3.9076    4.2466   -1.0285 C   0  0  0  0  0  0
   -4.9905   -2.3104    0.6145 C   0  0  0  0  0  0
   -4.8771   -1.6821    1.9939 C   0  0  0  0  0  0
    0.7541   -0.4888   -0.0468 C   0  0  0  0  0  0
    1.8132   -1.6101   -0.0090 C   0  0  0  0  0  0
    3.1995   -1.1027    0.3629 C   0  0  0  0  0  0
    4.0772   -0.6368   -0.6387 C   0  0  0  0  0  0
    3.6159   -1.0978    1.7107 C   0  0  0  0  0  0
    5.3605   -0.1645   -0.2988 C   0  0  0  0  0  0
    4.8980   -0.6269    2.0529 C   0  0  0  0  0  0
    5.7727   -0.1594    1.0522 C   0  0  0  0  0  0
   -2.2806   -0.1651   -1.3731 H   0  0  0  0  0  0
   -3.3191    0.6351    0.8294 H   0  0  0  0  0  0
   -1.8162    0.2306    1.6287 H   0  0  0  0  0  0
   -1.1455   -2.4661    1.5822 H   0  0  0  0  0  0
   -2.2253   -3.5057    0.6646 H   0  0  0  0  0  0
   -0.8502    2.1578   -0.0387 H   0  0  0  0  0  0
   -0.4872    1.5949   -1.6587 H   0  0  0  0  0  0
   -0.2187   -2.9168   -0.7112 H   0  0  0  0  0  0
   -1.6378   -2.2785   -1.4406 H   0  0  0  0  0  0
   -2.2004    3.4744   -3.2762 H   0  0  0  0  0  0
   -0.8472    3.7719   -2.1945 H   0  0  0  0  0  0
   -2.9647    3.0472    0.4883 H   0  0  0  0  0  0
   -4.2296    2.1927   -0.4082 H   0  0  0  0  0  0
   -2.8834    5.5945   -2.4174 H   0  0  0  0  0  0
   -2.0477    5.3127   -0.8902 H   0  0  0  0  0  0
   -4.3339    4.8797   -0.2496 H   0  0  0  0  0  0
   -4.6715    4.0877   -1.7911 H   0  0  0  0  0  0
   -5.9474   -2.1162    0.1298 H   0  0  0  0  0  0
   -4.8288   -3.3884    0.6604 H   0  0  0  0  0  0
   -5.3770   -2.2585    2.7725 H   0  0  0  0  0  0
   -5.2740   -0.6658    1.9953 H   0  0  0  0  0  0
    1.5134   -2.3713    0.7124 H   0  0  0  0  0  0
    1.8719   -2.0906   -0.9865 H   0  0  0  0  0  0
    3.7652   -0.6370   -1.6729 H   0  0  0  0  0  0
    2.9521   -1.4512    2.4862 H   0  0  0  0  0  0
    5.2103   -0.6239    3.0869 H   0  0  0  0  0  0
   -2.3849    2.4379   -1.4615 N   0  3  0  0  0  0
   -2.8612    1.8513   -2.1320 H   0  0  0  0  0  0
  1 24  1  0  0  0
  2 26  1  0  0  0
  3  8  1  0  0  0
  3 17  1  0  0  0
  4  8  1  0  0  0
  4 18  1  0  0  0
  5 19  2  0  0  0
  6  7  1  0  0  0
  6 12  1  0  0  0
  6 19  1  0  0  0
  7  9  1  0  0  0
  7 11  1  0  0  0
  7 27  1  0  0  0
  8  9  1  0  0  0
  8 10  1  0  0  0
  9 28  1  0  0  0
  9 29  1  0  0  0
 10 12  1  0  0  0
 10 30  1  0  0  0
 10 31  1  0  0  0
 11 32  1  0  0  0
 11 33  1  0  0  0
 11 53  1  0  0  0
 12 34  1  0  0  0
 12 35  1  0  0  0
 13 15  1  0  0  0
 13 36  1  0  0  0
 13 37  1  0  0  0
 13 53  1  0  0  0
 14 16  1  0  0  0
 14 38  1  0  0  0
 14 39  1  0  0  0
 14 53  1  0  0  0
 15 16  1  0  0  0
 15 40  1  0  0  0
 15 41  1  0  0  0
 16 42  1  0  0  0
 16 43  1  0  0  0
 17 18  1  0  0  0
 17 44  1  0  0  0
 17 45  1  0  0  0
 18 46  1  0  0  0
 18 47  1  0  0  0
 19 20  1  0  0  0
 20 21  1  0  0  0
 20 48  1  0  0  0
 20 49  1  0  0  0
 21 22  2  0  0  0
 21 23  1  0  0  0
 22 24  1  0  0  0
 22 50  1  0  0  0
 23 25  2  0  0  0
 23 51  1  0  0  0
 24 26  2  0  0  0
 25 26  1  0  0  0
 25 52  1  0  0  0
 53 54  1  0  0  0
M  CHG  1  53   1
M  END
> <LID>
L005975

> <PC_CID>
9955378

> <Names>


> <CAS_Numbers>
125104-16-7;125104-25-8;135374-80-0

$$$$
5284371
                    3D
 Structure written by MMmdl.
 44 48  0  0  1  0            999 V2000
   -1.6185   -0.8720    1.1016 O   0  0  0  0  0  0
   -1.8678   -3.2258   -0.1478 O   0  0  0  0  0  0
   -3.7582    1.2131    0.2750 O   0  0  0  0  0  0
    0.6975   -0.5705    0.6575 C   0  0  1  0  0  0
    1.7914   -1.0142   -0.3305 C   0  0  2  0  0  0
    2.6251    0.2407   -0.6836 C   0  0  1  0  0  0
   -0.3966   -1.6296    1.0131 C   0  0  2  0  0  0
    1.3892   -0.0495    1.9410 C   0  0  0  0  0  0
   -0.1386    0.5129    0.0321 C   0  0  0  0  0  0
    1.7602    1.3584   -1.3376 C   0  0  0  0  0  0
    2.4005    1.0771    1.6553 C   0  0  0  0  0  0
    0.3265    1.5183   -0.8311 C   0  0  0  0  0  0
   -0.5303   -2.7875   -0.0216 C   0  0  2  0  0  0
    1.1738   -1.7249   -1.5208 C   0  0  0  0  0  0
   -1.4513    0.2921    0.4072 C   0  0  0  0  0  0
    0.0973   -2.5135   -1.3784 C   0  0  0  0  0  0
    4.3905    1.7012    0.3262 C   0  0  0  0  0  0
   -0.6348    2.4559   -1.2545 C   0  0  0  0  0  0
   -2.4109    1.2523   -0.0179 C   0  0  0  0  0  0
   -1.9785    2.3337   -0.8273 C   0  0  0  0  0  0
   -4.2565    0.1492    1.0705 C   0  0  0  0  0  0
    2.4432   -1.7492    0.1452 H   0  0  0  0  0  0
    3.4054   -0.0474   -1.3899 H   0  0  0  0  0  0
   -0.2079   -2.0722    1.9921 H   0  0  0  0  0  0
    1.9102   -0.8758    2.4268 H   0  0  0  0  0  0
    0.6469    0.3018    2.6592 H   0  0  0  0  0  0
    1.6666    1.1251   -2.3987 H   0  0  0  0  0  0
    2.2554    2.3275   -1.3071 H   0  0  0  0  0  0
    1.8835    2.0045    1.4068 H   0  0  0  0  0  0
    2.9761    1.2830    2.5585 H   0  0  0  0  0  0
    0.0235   -3.6417    0.3695 H   0  0  0  0  0  0
    1.6251   -1.5803   -2.4915 H   0  0  0  0  0  0
   -0.3217   -3.0216   -2.2349 H   0  0  0  0  0  0
    4.9886    1.8261    1.2294 H   0  0  0  0  0  0
    5.0625    1.3811   -0.4707 H   0  0  0  0  0  0
    3.9832    2.6772    0.0630 H   0  0  0  0  0  0
   -0.3551    3.2505   -1.9305 H   0  0  0  0  0  0
   -2.7032    3.0601   -1.1649 H   0  0  0  0  0  0
   -2.2094   -3.4020    0.7156 H   0  0  0  0  0  0
   -5.3272    0.2859    1.2205 H   0  0  0  0  0  0
   -4.1157   -0.8147    0.5797 H   0  0  0  0  0  0
   -3.7876    0.1319    2.0551 H   0  0  0  0  0  0
    3.3241    0.6990    0.5558 N   0  3  2  0  0  0
    3.8114   -0.1203    0.8901 H   0  0  0  0  0  0
  1  7  1  0  0  0
  1 15  1  0  0  0
  2 13  1  0  0  0
  2 39  1  0  0  0
  3 19  1  0  0  0
  3 21  1  0  0  0
  4  5  1  0  0  0
  4  7  1  0  0  0
  4  8  1  0  0  0
  4  9  1  0  0  0
  5  6  1  0  0  0
  5 14  1  0  0  0
  5 22  1  0  0  0
  6 10  1  0  0  0
  6 23  1  0  0  0
  6 43  1  0  0  0
  7 13  1  0  0  0
  7 24  1  0  0  0
  8 11  1  0  0  0
  8 25  1  0  0  0
  8 26  1  0  0  0
  9 12  2  0  0  0
  9 15  1  0  0  0
 10 12  1  0  0  0
 10 27  1  0  0  0
 10 28  1  0  0  0
 11 29  1  0  0  0
 11 30  1  0  0  0
 11 43  1  0  0  0
 12 18  1  0  0  0
 13 16  1  0  0  0
 13 31  1  0  0  0
 14 16  2  0  0  0
 14 32  1  0  0  0
 15 19  2  0  0  0
 16 33  1  0  0  0
 17 34  1  0  0  0
 17 35  1  0  0  0
 17 36  1  0  0  0
 17 43  1  0  0  0
 18 20  2  0  0  0
 18 37  1  0  0  0
 19 20  1  0  0  0
 20 38  1  0  0  0
 21 40  1  0  0  0
 21 41  1  0  0  0
 21 42  1  0  0  0
 43 44  1  0  0  0
M  CHG  1  43   1
M  END
> <LID>
L001048

> <PC_CID>
5284371

> <Names>
Codeine

> <CAS_Numbers>
41444-62-6;76-57-3

$$$$
10476369
                    3D
 Structure written by MMmdl.
 50 53  0  0  1  0            999 V2000
    6.4762   -1.6544    1.4533 Cl  0  0  0  0  0  0
    7.6531   -0.1791   -1.1173 Cl  0  0  0  0  0  0
   -3.2082    3.2983   -0.7796 O   0  0  0  0  0  0
    1.3216   -0.4635   -0.3870 O   0  0  0  0  0  0
   -0.2668    0.8144    0.6022 N   0  0  0  0  0  0
   -1.3850    0.1378   -0.1180 C   0  0  1  0  0  0
   -2.0631   -0.8573    0.8701 C   0  0  0  0  0  0
   -2.3241    1.2143   -0.6587 C   0  0  0  0  0  0
   -0.6707    1.8610    1.5800 C   0  0  0  0  0  0
   -1.4547    3.0156    0.9182 C   0  0  0  0  0  0
   -2.3267    2.4786   -0.1538 C   0  0  0  0  0  0
   -3.5668   -1.8965   -0.8906 C   0  0  0  0  0  0
   -3.3973   -2.8446    1.3903 C   0  0  0  0  0  0
    1.0251    0.4756    0.3547 C   0  0  0  0  0  0
   -3.2761    1.2582   -1.7225 C   0  0  0  0  0  0
   -4.0249   -3.2425   -1.4872 C   0  0  0  0  0  0
   -4.1544   -4.0533    0.8708 C   0  0  0  0  0  0
   -3.7878    2.5272   -1.7375 C   0  0  0  0  0  0
    2.1558    1.2928    1.0109 C   0  0  0  0  0  0
   -4.4473   -4.2314   -0.4246 C   0  0  0  0  0  0
    3.5340    0.9199    0.4832 C   0  0  0  0  0  0
    4.2958   -0.0773    1.1285 C   0  0  0  0  0  0
    4.0592    1.5712   -0.6525 C   0  0  0  0  0  0
    5.5712   -0.4264    0.6420 C   0  0  0  0  0  0
    5.3337    1.2245   -1.1401 C   0  0  0  0  0  0
    6.0925    0.2269   -0.4968 C   0  0  0  0  0  0
   -1.0148   -0.4104   -0.9851 H   0  0  0  0  0  0
   -1.3072   -1.2329    1.5622 H   0  0  0  0  0  0
   -2.7816   -0.3125    1.4847 H   0  0  0  0  0  0
    0.1395    2.2679    2.1823 H   0  0  0  0  0  0
   -1.3254    1.3784    2.3058 H   0  0  0  0  0  0
   -0.7557    3.7296    0.4819 H   0  0  0  0  0  0
   -2.0422    3.5578    1.6595 H   0  0  0  0  0  0
   -2.9923   -1.4032   -1.6681 H   0  0  0  0  0  0
   -4.4238   -1.2695   -0.6397 H   0  0  0  0  0  0
   -4.1059   -2.2056    1.9194 H   0  0  0  0  0  0
   -2.6570   -3.1813    2.1170 H   0  0  0  0  0  0
   -3.5614    0.4835   -2.4158 H   0  0  0  0  0  0
   -4.8506   -3.0799   -2.1806 H   0  0  0  0  0  0
   -3.2155   -3.6961   -2.0602 H   0  0  0  0  0  0
   -4.4808   -4.7787    1.6020 H   0  0  0  0  0  0
    1.9933    2.3563    0.8303 H   0  0  0  0  0  0
    2.1362    1.1378    2.0903 H   0  0  0  0  0  0
   -4.5216    3.0311   -2.3494 H   0  0  0  0  0  0
   -4.9823   -5.1124   -0.7486 H   0  0  0  0  0  0
    3.9001   -0.5812    1.9982 H   0  0  0  0  0  0
    3.4846    2.3357   -1.1550 H   0  0  0  0  0  0
    5.7295    1.7257   -2.0113 H   0  0  0  0  0  0
   -2.7124   -2.0786    0.3089 N   0  3  2  0  0  0
   -1.9549   -2.6669   -0.0086 H   0  0  0  0  0  0
  1 24  1  0  0  0
  2 26  1  0  0  0
  3 11  1  0  0  0
  3 18  1  0  0  0
  4 14  2  0  0  0
  5  6  1  0  0  0
  5  9  1  0  0  0
  5 14  1  0  0  0
  6  7  1  0  0  0
  6  8  1  0  0  0
  6 27  1  0  0  0
  7 28  1  0  0  0
  7 29  1  0  0  0
  7 49  1  0  0  0
  8 11  2  0  0  0
  8 15  1  0  0  0
  9 10  1  0  0  0
  9 30  1  0  0  0
  9 31  1  0  0  0
 10 11  1  0  0  0
 10 32  1  0  0  0
 10 33  1  0  0  0
 12 16  1  0  0  0
 12 34  1  0  0  0
 12 35  1  0  0  0
 12 49  1  0  0  0
 13 17  1  0  0  0
 13 36  1  0  0  0
 13 37  1  0  0  0
 13 49  1  0  0  0
 14 19  1  0  0  0
 15 18  2  0  0  0
 15 38  1  0  0  0
 16 20  1  0  0  0
 16 39  1  0  0  0
 16 40  1  0  0  0
 17 20  2  0  0  0
 17 41  1  0  0  0
 18 44  1  0  0  0
 19 21  1  0  0  0
 19 42  1  0  0  0
 19 43  1  0  0  0
 20 45  1  0  0  0
 21 22  2  0  0  0
 21 23  1  0  0  0
 22 24  1  0  0  0
 22 46  1  0  0  0
 23 25  2  0  0  0
 23 47  1  0  0  0
 24 26  2  0  0  0
 25 26  1  0  0  0
 25 48  1  0  0  0
 49 50  1  0  0  0
M  CHG  1  49   1
M  END
> <LID>
L003820

> <PC_CID>
10476369

> <Names>


> <CAS_Numbers>


$$$$
44216265
                    3D
 Structure written by MMmdl.
 68 71  0  0  1  0            999 V2000
   -1.0187   -3.8319    5.8768 Cl  0  0  0  0  0  0
   -6.8456    0.4232   -5.8345 Cl  0  0  0  0  0  0
    5.5934   -0.3182   -3.5969 O   0  0  0  0  0  0
    1.3084   -1.0131    1.5035 O   0  0  0  0  0  0
   -4.3146   -1.8747    0.1794 O   0  0  0  0  0  0
    1.3343    1.2331    1.1725 N   0  0  0  0  0  0
   -2.2008   -1.1685    0.6554 N   0  0  0  0  0  0
   -3.1561   -0.5009   -1.2269 N   0  0  0  0  0  0
    3.6798    0.8698   -2.6433 C   0  0  0  0  0  0
    5.0574    0.9539   -3.2998 C   0  0  1  0  0  0
    4.8979    2.6682   -1.6083 C   0  0  0  0  0  0
    5.8876    1.6858   -2.2464 C   0  0  0  0  0  0
    2.5050    2.2580   -0.8500 C   0  0  0  0  0  0
    2.5099    1.1636    0.2650 C   0  0  1  0  0  0
    3.8186    1.0866    1.0505 C   0  0  0  0  0  0
    0.8074    0.0960    1.7014 C   0  0  0  0  0  0
    0.7659    2.5546    1.4855 C   0  0  0  0  0  0
    4.1674    2.0855    1.9878 C   0  0  0  0  0  0
    4.6964   -0.0014    0.8469 C   0  0  0  0  0  0
   -0.4694    0.1896    2.5636 C   0  0  0  0  0  0
    5.3802    2.0034    2.6986 C   0  0  0  0  0  0
    5.9092   -0.0830    1.5574 C   0  0  0  0  0  0
   -1.0965   -1.1758    2.8413 C   0  0  0  0  0  0
    6.2527    0.9203    2.4825 C   0  0  0  0  0  0
   -1.9555   -1.8074    1.9037 C   0  0  0  0  0  0
   -0.8168   -1.8108    4.0712 C   0  0  0  0  0  0
   -2.4967   -3.0802    2.2096 C   0  0  0  0  0  0
   -1.3724   -3.0680    4.3709 C   0  0  0  0  0  0
   -2.2109   -3.7034    3.4384 C   0  0  0  0  0  0
   -3.2998   -1.2444   -0.1154 C   0  0  0  0  0  0
   -4.0721   -0.3257   -2.3000 C   0  0  0  0  0  0
   -3.9310    0.8373   -3.0864 C   0  0  0  0  0  0
   -5.0732   -1.2695   -2.6371 C   0  0  0  0  0  0
   -4.7905    1.0717   -4.1772 C   0  0  0  0  0  0
   -5.9316   -1.0340   -3.7289 C   0  0  0  0  0  0
   -5.7932    0.1372   -4.4976 C   0  0  0  0  0  0
    2.8759    0.7247   -3.3655 H   0  0  0  0  0  0
    3.6742    0.0237   -1.9596 H   0  0  0  0  0  0
    5.0034    1.5524   -4.2106 H   0  0  0  0  0  0
    5.0901    2.7878   -0.5440 H   0  0  0  0  0  0
    4.9949    3.6552   -2.0615 H   0  0  0  0  0  0
    6.7648    2.1795   -2.6658 H   0  0  0  0  0  0
    6.2354    0.9821   -1.4884 H   0  0  0  0  0  0
    2.6083    3.2570   -0.4289 H   0  0  0  0  0  0
    1.5355    2.2378   -1.3493 H   0  0  0  0  0  0
    2.4079    0.2228   -0.2736 H   0  0  0  0  0  0
    5.0702   -0.7223   -4.2729 H   0  0  0  0  0  0
   -0.0885    2.7601    0.8396 H   0  0  0  0  0  0
    0.4348    2.6300    2.5212 H   0  0  0  0  0  0
    1.4773    3.3678    1.3664 H   0  0  0  0  0  0
    3.5158    2.9264    2.1655 H   0  0  0  0  0  0
    4.4462   -0.7828    0.1447 H   0  0  0  0  0  0
   -0.2169    0.6609    3.5141 H   0  0  0  0  0  0
   -1.2095    0.8319    2.0853 H   0  0  0  0  0  0
    5.6418    2.7725    3.4104 H   0  0  0  0  0  0
    6.5755   -0.9172    1.3936 H   0  0  0  0  0  0
    7.1827    0.8575    3.0282 H   0  0  0  0  0  0
   -0.1674   -1.3342    4.7910 H   0  0  0  0  0  0
   -3.1247   -3.6037    1.5047 H   0  0  0  0  0  0
   -1.4822   -0.5306    0.3501 H   0  0  0  0  0  0
   -2.6311   -4.6732    3.6608 H   0  0  0  0  0  0
   -2.3111    0.0456   -1.2921 H   0  0  0  0  0  0
   -3.1644    1.5616   -2.8523 H   0  0  0  0  0  0
   -5.1931   -2.1868   -2.0815 H   0  0  0  0  0  0
   -4.6784    1.9686   -4.7685 H   0  0  0  0  0  0
   -6.6941   -1.7572   -3.9785 H   0  0  0  0  0  0
    3.5417    2.1529   -1.9177 N   0  3  2  0  0  0
    3.2203    2.7938   -2.6294 H   0  0  0  0  0  0
  1 28  1  0  0  0
  2 36  1  0  0  0
  3 10  1  0  0  0
  3 47  1  0  0  0
  4 16  2  0  0  0
  5 30  2  0  0  0
  6 14  1  0  0  0
  6 16  1  0  0  0
  6 17  1  0  0  0
  7 25  1  0  0  0
  7 30  1  0  0  0
  7 60  1  0  0  0
  8 30  1  0  0  0
  8 31  1  0  0  0
  8 62  1  0  0  0
  9 10  1  0  0  0
  9 37  1  0  0  0
  9 38  1  0  0  0
  9 67  1  0  0  0
 10 12  1  0  0  0
 10 39  1  0  0  0
 11 12  1  0  0  0
 11 40  1  0  0  0
 11 41  1  0  0  0
 11 67  1  0  0  0
 12 42  1  0  0  0
 12 43  1  0  0  0
 13 14  1  0  0  0
 13 44  1  0  0  0
 13 45  1  0  0  0
 13 67  1  0  0  0
 14 15  1  0  0  0
 14 46  1  0  0  0
 15 18  2  0  0  0
 15 19  1  0  0  0
 16 20  1  0  0  0
 17 48  1  0  0  0
 17 49  1  0  0  0
 17 50  1  0  0  0
 18 21  1  0  0  0
 18 51  1  0  0  0
 19 22  2  0  0  0
 19 52  1  0  0  0
 20 23  1  0  0  0
 20 53  1  0  0  0
 20 54  1  0  0  0
 21 24  2  0  0  0
 21 55  1  0  0  0
 22 24  1  0  0  0
 22 56  1  0  0  0
 23 25  2  0  0  0
 23 26  1  0  0  0
 24 57  1  0  0  0
 25 27  1  0  0  0
 26 28  2  0  0  0
 26 58  1  0  0  0
 27 29  2  0  0  0
 27 59  1  0  0  0
 28 29  1  0  0  0
 29 61  1  0  0  0
 31 32  2  0  0  0
 31 33  1  0  0  0
 32 34  1  0  0  0
 32 63  1  0  0  0
 33 35  2  0  0  0
 33 64  1  0  0  0
 34 36  2  0  0  0
 34 65  1  0  0  0
 35 36  1  0  0  0
 35 66  1  0  0  0
 67 68  1  0  0  0
M  CHG  1  67   1
M  END
> <LID>
L023603

> <PC_CID>
44216265

> <Names>


> <CAS_Numbers>


$$$$
60768
                    3D
 Structure written by MMmdl.
 62 66  0  0  1  0            999 V2000
    5.5126   -0.8976   -0.1834 O   0  0  0  0  0  0
   -0.5136   -1.1431   -0.0411 O   0  0  0  0  0  0
   -4.8707    1.4229   -1.8684 O   0  0  0  0  0  0
    0.2483   -0.2341    1.8928 N   0  0  0  0  0  0
    4.0870   -0.9703   -0.1063 C   0  0  2  0  0  0
    2.0442    0.6147    0.2317 C   0  0  1  0  0  0
    3.5737    0.4836   -0.0343 C   0  0  0  0  0  0
    1.6793   -0.2327    1.5006 C   0  0  2  0  0  0
    3.7167   -1.7269    1.1788 C   0  0  0  0  0  0
    2.2052   -1.6857    1.4219 C   0  0  0  0  0  0
    3.6550   -1.7050   -1.3926 C   0  0  0  0  0  0
    4.8474   -1.5429   -2.3090 C   0  0  0  0  0  0
    0.1867    2.3414    0.1409 C   0  0  0  0  0  0
    2.3678    3.0490   -0.4293 C   0  0  0  0  0  0
    5.9937   -1.6127   -1.3135 C   0  0  0  0  0  0
    0.0901    3.7360   -0.4921 C   0  0  0  0  0  0
    1.5013    4.3014   -0.4038 C   0  0  0  0  0  0
   -0.0314    0.2171    3.2642 C   0  0  0  0  0  0
   -0.7420   -0.6991    1.0852 C   0  0  0  0  0  0
   -2.2014   -0.6470    1.5836 C   0  0  0  0  0  0
   -3.2038   -0.7730    0.4446 C   0  0  0  0  0  0
   -3.6396    0.3874   -0.2447 C   0  0  0  0  0  0
   -3.6911   -2.0491    0.0758 C   0  0  0  0  0  0
   -4.5608    0.2010   -1.3078 C   0  0  0  0  0  0
   -3.4021    1.8030   -0.1735 C   0  0  0  0  0  0
   -4.6092   -2.1935   -0.9850 C   0  0  0  0  0  0
   -5.0508   -1.0585   -1.6892 C   0  0  0  0  0  0
   -4.1635    2.3639   -1.1702 C   0  0  0  0  0  0
    1.5392    0.2119   -0.6451 H   0  0  0  0  0  0
    3.8544    0.9773   -0.9643 H   0  0  0  0  0  0
    4.1155    1.0008    0.7593 H   0  0  0  0  0  0
    2.2460    0.2351    2.3062 H   0  0  0  0  0  0
    4.0634   -2.7597    1.1284 H   0  0  0  0  0  0
    4.2304   -1.2769    2.0295 H   0  0  0  0  0  0
    1.9798   -2.2105    2.3511 H   0  0  0  0  0  0
    1.7034   -2.2418    0.6303 H   0  0  0  0  0  0
    3.5029   -2.7671   -1.1950 H   0  0  0  0  0  0
    2.7350   -1.3240   -1.8349 H   0  0  0  0  0  0
    4.9040   -2.3108   -3.0809 H   0  0  0  0  0  0
    4.8254   -0.5661   -2.7937 H   0  0  0  0  0  0
   -0.2688    1.6132   -0.5307 H   0  0  0  0  0  0
   -0.3520    2.3136    1.0872 H   0  0  0  0  0  0
    3.3667    3.2395   -0.0354 H   0  0  0  0  0  0
    2.4601    2.7018   -1.4600 H   0  0  0  0  0  0
    6.9173   -1.1811   -1.6994 H   0  0  0  0  0  0
    6.1906   -2.6463   -1.0253 H   0  0  0  0  0  0
   -0.2073    3.6449   -1.5378 H   0  0  0  0  0  0
   -0.6432    4.3719    0.0050 H   0  0  0  0  0  0
    1.6346    4.8280    0.5424 H   0  0  0  0  0  0
    1.7326    4.9953   -1.2126 H   0  0  0  0  0  0
   -0.5165    1.1936    3.2545 H   0  0  0  0  0  0
   -0.6835   -0.4832    3.7878 H   0  0  0  0  0  0
    0.8615    0.3062    3.8827 H   0  0  0  0  0  0
   -2.3633   -1.4514    2.3019 H   0  0  0  0  0  0
   -2.3985    0.2903    2.1040 H   0  0  0  0  0  0
   -3.3529   -2.9283    0.6048 H   0  0  0  0  0  0
   -2.7602    2.3145    0.5268 H   0  0  0  0  0  0
   -4.9703   -3.1743   -1.2580 H   0  0  0  0  0  0
   -5.7520   -1.1515   -2.5052 H   0  0  0  0  0  0
   -4.3081    3.3840   -1.4952 H   0  0  0  0  0  0
    1.6255    2.0505    0.3747 N   0  3  0  0  0  0
    1.8107    2.3073    1.3339 H   0  0  0  0  0  0
  1  5  1  0  0  0
  1 15  1  0  0  0
  2 19  2  0  0  0
  3 24  1  0  0  0
  3 28  1  0  0  0
  4  8  1  0  0  0
  4 18  1  0  0  0
  4 19  1  0  0  0
  5  7  1  0  0  0
  5  9  1  0  0  0
  5 11  1  0  0  0
  6  7  1  0  0  0
  6  8  1  0  0  0
  6 29  1  0  0  0
  6 61  1  0  0  0
  7 30  1  0  0  0
  7 31  1  0  0  0
  8 10  1  0  0  0
  8 32  1  0  0  0
  9 10  1  0  0  0
  9 33  1  0  0  0
  9 34  1  0  0  0
 10 35  1  0  0  0
 10 36  1  0  0  0
 11 12  1  0  0  0
 11 37  1  0  0  0
 11 38  1  0  0  0
 12 15  1  0  0  0
 12 39  1  0  0  0
 12 40  1  0  0  0
 13 16  1  0  0  0
 13 41  1  0  0  0
 13 42  1  0  0  0
 13 61  1  0  0  0
 14 17  1  0  0  0
 14 43  1  0  0  0
 14 44  1  0  0  0
 14 61  1  0  0  0
 15 45  1  0  0  0
 15 46  1  0  0  0
 16 17  1  0  0  0
 16 47  1  0  0  0
 16 48  1  0  0  0
 17 49  1  0  0  0
 17 50  1  0  0  0
 18 51  1  0  0  0
 18 52  1  0  0  0
 18 53  1  0  0  0
 19 20  1  0  0  0
 20 21  1  0  0  0
 20 54  1  0  0  0
 20 55  1  0  0  0
 21 22  2  0  0  0
 21 23  1  0  0  0
 22 24  1  0  0  0
 22 25  1  0  0  0
 23 26  2  0  0  0
 23 56  1  0  0  0
 24 27  2  0  0  0
 25 28  2  0  0  0
 25 57  1  0  0  0
 26 27  1  0  0  0
 26 58  1  0  0  0
 27 59  1  0  0  0
 28 60  1  0  0  0
 61 62  1  0  0  0
M  CHG  1  61   1
M  END
> <LID>
L004459

> <PC_CID>
60768

> <Names>
enadoline

> <CAS_Numbers>
124378-77-4

$$$$
5464087
                    3D
 Structure written by MMmdl.
 45 49  0  0  1  0            999 V2000
    1.3747   -1.5937   -0.4996 O   0  0  0  0  0  0
   -3.0730   -0.3802   -0.2600 O   0  0  0  0  0  0
   -0.7480   -3.7925   -0.5476 O   0  0  0  0  0  0
    4.2218   -0.3120   -0.2085 O   0  0  0  0  0  0
   -0.5767   -0.2718   -0.2612 C   0  0  1  0  0  0
   -1.9065   -0.0239    0.4864 C   0  0  1  0  0  0
   -1.9856    1.5231    0.6115 C   0  0  1  0  0  0
    0.0781   -1.5978    0.0888 C   0  0  1  0  0  0
   -0.8142    0.1258   -1.7421 C   0  0  0  0  0  0
    0.6348    0.4898    0.1743 C   0  0  0  0  0  0
   -2.0586   -1.0186    1.6752 C   0  0  0  0  0  0
   -0.7501    2.1632    1.3193 C   0  0  0  0  0  0
   -1.1894    1.6373   -1.8143 C   0  0  0  0  0  0
    0.6272    1.7238    0.8222 C   0  0  0  0  0  0
   -1.9748   -2.5280    1.1831 C   0  0  0  0  0  0
   -0.8591   -2.7763    0.1334 C   0  0  0  0  0  0
    1.7400   -0.3037   -0.1509 C   0  0  0  0  0  0
   -2.5014    3.5105   -0.8418 C   0  0  0  0  0  0
    1.8975    2.2884    1.0509 C   0  0  0  0  0  0
    3.0129    0.2923    0.0632 C   0  0  0  0  0  0
    3.0653    1.5910    0.6418 C   0  0  0  0  0  0
    4.2175   -1.5654   -0.8740 C   0  0  0  0  0  0
   -2.8760    1.7809    1.1873 H   0  0  0  0  0  0
    0.3345   -1.5847    1.1540 H   0  0  0  0  0  0
   -1.5878   -0.4864   -2.2055 H   0  0  0  0  0  0
    0.0751   -0.0532   -2.3480 H   0  0  0  0  0  0
   -3.0060   -0.8548    2.1912 H   0  0  0  0  0  0
   -1.2886   -0.8240    2.4230 H   0  0  0  0  0  0
   -0.7904    1.8948    2.3754 H   0  0  0  0  0  0
   -0.8020    3.2511    1.3001 H   0  0  0  0  0  0
   -0.2914    2.2473   -1.7103 H   0  0  0  0  0  0
   -1.5836    1.8630   -2.8056 H   0  0  0  0  0  0
   -2.9235   -2.8271    0.7372 H   0  0  0  0  0  0
   -1.8145   -3.1888    2.0352 H   0  0  0  0  0  0
   -3.0697   -1.3148   -0.4047 H   0  0  0  0  0  0
   -2.8743    3.7743   -1.8320 H   0  0  0  0  0  0
   -3.2724    3.7741   -0.1171 H   0  0  0  0  0  0
   -1.6189    4.1199   -0.6460 H   0  0  0  0  0  0
    1.9856    3.2380    1.5580 H   0  0  0  0  0  0
    4.0300    2.0411    0.8253 H   0  0  0  0  0  0
    5.2431   -1.8493   -1.1095 H   0  0  0  0  0  0
    3.7989   -2.3484   -0.2410 H   0  0  0  0  0  0
    3.6651   -1.5210   -1.8137 H   0  0  0  0  0  0
   -2.1895    2.0648   -0.7812 N   0  3  2  0  0  0
   -3.0411    1.6002   -1.0671 H   0  0  0  0  0  0
  1  8  1  0  0  0
  1 17  1  0  0  0
  2  6  1  0  0  0
  2 35  1  0  0  0
  3 16  2  0  0  0
  4 20  1  0  0  0
  4 22  1  0  0  0
  5  6  1  0  0  0
  5  8  1  0  0  0
  5  9  1  0  0  0
  5 10  1  0  0  0
  6  7  1  0  0  0
  6 11  1  0  0  0
  7 12  1  0  0  0
  7 23  1  0  0  0
  7 44  1  0  0  0
  8 16  1  0  0  0
  8 24  1  0  0  0
  9 13  1  0  0  0
  9 25  1  0  0  0
  9 26  1  0  0  0
 10 14  2  0  0  0
 10 17  1  0  0  0
 11 15  1  0  0  0
 11 27  1  0  0  0
 11 28  1  0  0  0
 12 14  1  0  0  0
 12 29  1  0  0  0
 12 30  1  0  0  0
 13 31  1  0  0  0
 13 32  1  0  0  0
 13 44  1  0  0  0
 14 19  1  0  0  0
 15 16  1  0  0  0
 15 33  1  0  0  0
 15 34  1  0  0  0
 17 20  2  0  0  0
 18 36  1  0  0  0
 18 37  1  0  0  0
 18 38  1  0  0  0
 18 44  1  0  0  0
 19 21  2  0  0  0
 19 39  1  0  0  0
 20 21  1  0  0  0
 21 40  1  0  0  0
 22 41  1  0  0  0
 22 42  1  0  0  0
 22 43  1  0  0  0
 44 45  1  0  0  0
M  CHG  1  44   1
M  END
> <LID>
L013406

> <PC_CID>
5464087

> <Names>
Aspirin-oxycodone hydrochloride-oxycodone terephthalate combination;Oxycodone;oxycodone terephthalate

> <CAS_Numbers>
124-90-3;76-42-6

$$$$
22253469
                    3D
 Structure written by MMmdl.
 63 65  0  0  1  0            999 V2000
   -6.5948    2.6741    0.2032 S   0  0  0  0  0  0
    5.2125    4.0647    1.6871 O   0  0  0  0  0  0
    0.9451   -1.8259   -1.4582 O   0  0  0  0  0  0
   -7.7706    2.2113    0.9555 O   0  0  0  0  0  0
   -6.0182    4.0020    0.4600 O   0  0  0  0  0  0
    1.3091   -1.5418    0.7669 N   0  0  0  0  0  0
   -5.3369    1.5203    0.4304 N   0  0  0  0  0  0
    3.7719    2.1311    1.2372 C   0  0  0  0  0  0
    4.0226    3.6366    1.0588 C   0  0  2  0  0  0
    3.0981    2.7854   -0.9600 C   0  0  0  0  0  0
    4.0821    3.8342   -0.4532 C   0  0  0  0  0  0
    2.1353    0.6966   -0.0134 C   0  0  0  0  0  0
    2.5021   -0.6780    0.6075 C   0  0  2  0  0  0
    3.6739   -1.4084   -0.0589 C   0  0  0  0  0  0
    0.6280   -2.0577   -0.2914 C   0  0  0  0  0  0
    0.8972   -1.8037    2.1530 C   0  0  0  0  0  0
    4.4440   -2.3040    0.7154 C   0  0  0  0  0  0
    4.0009   -1.2274   -1.4240 C   0  0  0  0  0  0
   -0.5896   -2.9719   -0.0617 C   0  0  0  0  0  0
    5.5279   -2.9974    0.1435 C   0  0  0  0  0  0
    5.0847   -1.9211   -1.9961 C   0  0  0  0  0  0
   -1.8811   -2.1729    0.0461 C   0  0  0  0  0  0
    5.8501   -2.8047   -1.2127 C   0  0  0  0  0  0
   -2.6245   -2.1835    1.2456 C   0  0  0  0  0  0
   -2.3612   -1.4361   -1.0590 C   0  0  0  0  0  0
   -4.2961   -0.7105    0.2438 C   0  0  0  0  0  0
   -3.8237   -1.4521    1.3461 C   0  0  0  0  0  0
   -3.5606   -0.7053   -0.9593 C   0  0  0  0  0  0
   -5.5829    0.0828    0.3492 C   0  0  0  0  0  0
   -6.9513    2.5425   -1.5952 C   0  0  0  0  0  0
    4.6877    1.5963    1.4935 H   0  0  0  0  0  0
    3.0536    1.9570    2.0398 H   0  0  0  0  0  0
    3.1788    4.1984    1.4626 H   0  0  0  0  0  0
    3.2623    2.5257   -2.0064 H   0  0  0  0  0  0
    2.0780    3.1607   -0.8597 H   0  0  0  0  0  0
    5.0819    3.6110   -0.8300 H   0  0  0  0  0  0
    3.8232    4.8478   -0.7612 H   0  0  0  0  0  0
    1.7514    0.5689   -1.0254 H   0  0  0  0  0  0
    1.3288    1.1638    0.5542 H   0  0  0  0  0  0
    2.8873   -0.4442    1.5993 H   0  0  0  0  0  0
    5.1140    3.9776    2.6234 H   0  0  0  0  0  0
    1.0203   -2.8597    2.3961 H   0  0  0  0  0  0
    1.4648   -1.2434    2.8954 H   0  0  0  0  0  0
   -0.1458   -1.5310    2.3078 H   0  0  0  0  0  0
    4.2043   -2.4636    1.7567 H   0  0  0  0  0  0
    3.4223   -0.5672   -2.0518 H   0  0  0  0  0  0
   -0.6811   -3.6489   -0.9121 H   0  0  0  0  0  0
   -0.4537   -3.6159    0.8067 H   0  0  0  0  0  0
    6.1112   -3.6788    0.7452 H   0  0  0  0  0  0
    5.3262   -1.7786   -3.0392 H   0  0  0  0  0  0
    6.6803   -3.3376   -1.6527 H   0  0  0  0  0  0
   -2.2776   -2.7517    2.0963 H   0  0  0  0  0  0
   -1.8095   -1.4282   -1.9878 H   0  0  0  0  0  0
   -4.3793   -1.4637    2.2725 H   0  0  0  0  0  0
   -3.9162   -0.1414   -1.8094 H   0  0  0  0  0  0
   -6.1980   -0.1311   -0.5249 H   0  0  0  0  0  0
   -6.1566   -0.2306    1.2222 H   0  0  0  0  0  0
   -4.3851    1.8438    0.2602 H   0  0  0  0  0  0
   -7.3193    1.5440   -1.8280 H   0  0  0  0  0  0
   -7.7119    3.2752   -1.8635 H   0  0  0  0  0  0
   -6.0430    2.7409   -2.1634 H   0  0  0  0  0  0
    3.2940    1.6212   -0.0719 N   0  3  2  0  0  0
    4.0652    1.1014   -0.4676 H   0  0  0  0  0  0
  1  4  2  0  0  0
  1  5  2  0  0  0
  1  7  1  0  0  0
  1 30  1  0  0  0
  2  9  1  0  0  0
  2 41  1  0  0  0
  3 15  2  0  0  0
  6 13  1  0  0  0
  6 15  1  0  0  0
  6 16  1  0  0  0
  7 29  1  0  0  0
  7 58  1  0  0  0
  8  9  1  0  0  0
  8 31  1  0  0  0
  8 32  1  0  0  0
  8 62  1  0  0  0
  9 11  1  0  0  0
  9 33  1  0  0  0
 10 11  1  0  0  0
 10 34  1  0  0  0
 10 35  1  0  0  0
 10 62  1  0  0  0
 11 36  1  0  0  0
 11 37  1  0  0  0
 12 13  1  0  0  0
 12 38  1  0  0  0
 12 39  1  0  0  0
 12 62  1  0  0  0
 13 14  1  0  0  0
 13 40  1  0  0  0
 14 17  2  0  0  0
 14 18  1  0  0  0
 15 19  1  0  0  0
 16 42  1  0  0  0
 16 43  1  0  0  0
 16 44  1  0  0  0
 17 20  1  0  0  0
 17 45  1  0  0  0
 18 21  2  0  0  0
 18 46  1  0  0  0
 19 22  1  0  0  0
 19 47  1  0  0  0
 19 48  1  0  0  0
 20 23  2  0  0  0
 20 49  1  0  0  0
 21 23  1  0  0  0
 21 50  1  0  0  0
 22 24  2  0  0  0
 22 25  1  0  0  0
 23 51  1  0  0  0
 24 27  1  0  0  0
 24 52  1  0  0  0
 25 28  2  0  0  0
 25 53  1  0  0  0
 26 27  2  0  0  0
 26 28  1  0  0  0
 26 29  1  0  0  0
 27 54  1  0  0  0
 28 55  1  0  0  0
 29 56  1  0  0  0
 29 57  1  0  0  0
 30 59  1  0  0  0
 30 60  1  0  0  0
 30 61  1  0  0  0
 62 63  1  0  0  0
M  CHG  1  62   1
M  END
> <LID>
L023802

> <PC_CID>
22253469

> <Names>


> <CAS_Numbers>
808753-04-0;810025-48-0

$$$$
14348736
                    3D
 Structure written by MMmdl.
 66 69  0  0  1  0            999 V2000
    2.1487   -3.1004    0.8180 O   0  0  0  0  0  0
   -5.8656   -0.9198    1.6904 O   0  0  0  0  0  0
    2.9385   -1.0271    0.2482 N   0  0  0  0  0  0
   -5.1317   -0.5093   -0.4497 N   0  0  0  0  0  0
   -5.6932    0.0775   -1.5779 N   0  0  0  0  0  0
   -7.1068    0.0740    0.0238 N   0  0  0  0  0  0
   -6.8561    0.4212   -1.2990 N   0  0  0  0  0  0
    1.6073   -0.3228    0.1467 C   0  0  0  0  0  0
    0.7858   -0.4776    1.4713 C   0  0  0  0  0  0
    0.7161   -1.0158   -0.9365 C   0  0  0  0  0  0
   -0.6251    0.1355    1.3706 C   0  0  0  0  0  0
   -0.7070   -0.4229   -1.0229 C   0  0  0  0  0  0
    1.7937    1.1939   -0.1767 C   0  0  0  0  0  0
   -2.8077   -0.0156    0.2370 C   0  0  0  0  0  0
    4.1133   -0.2912   -0.0920 C   0  0  0  0  0  0
    3.0927   -2.3455    0.5846 C   0  0  0  0  0  0
    1.7953    1.6756   -1.5126 C   0  0  0  0  0  0
    2.0409    2.1354    0.8570 C   0  0  0  0  0  0
   -3.7606   -1.0035   -0.4624 C   0  0  0  0  0  0
    4.5158   -2.9443    0.6607 C   0  0  0  0  0  0
    1.9950    3.0395   -1.7985 C   0  0  0  0  0  0
    2.2410    3.4995    0.5728 C   0  0  0  0  0  0
    4.8503    0.3752    0.9123 C   0  0  0  0  0  0
    4.5365   -0.2196   -1.4378 C   0  0  0  0  0  0
    2.2129    3.9552   -0.7557 C   0  0  0  0  0  0
    4.5505   -4.4304    1.0561 C   0  0  0  0  0  0
    6.0012    1.1110    0.5703 C   0  0  0  0  0  0
    5.6879    0.5171   -1.7759 C   0  0  0  0  0  0
   -6.0215   -0.5012    0.5443 C   0  0  0  0  0  0
    6.4194    1.1822   -0.7728 C   0  0  0  0  0  0
   -8.3899    0.3733    0.6472 C   0  0  0  0  0  0
   -8.3286    1.6782    1.4513 C   0  0  0  0  0  0
    1.3195   -0.0666    2.3265 H   0  0  0  0  0  0
    0.6314   -1.5207    1.7354 H   0  0  0  0  0  0
    0.5874   -2.0750   -0.7238 H   0  0  0  0  0  0
    1.1964   -1.0005   -1.9139 H   0  0  0  0  0  0
   -1.1386   -0.0105    2.3218 H   0  0  0  0  0  0
   -0.5820    1.2126    1.2052 H   0  0  0  0  0  0
   -0.6857    0.6146   -1.3564 H   0  0  0  0  0  0
   -1.2624   -0.9747   -1.7801 H   0  0  0  0  0  0
   -3.1651    0.1363    1.2567 H   0  0  0  0  0  0
   -2.8394    0.9619   -0.2472 H   0  0  0  0  0  0
    1.6563    1.0132   -2.3512 H   0  0  0  0  0  0
    2.1010    1.8325    1.8896 H   0  0  0  0  0  0
   -3.4634   -1.1741   -1.4970 H   0  0  0  0  0  0
   -3.7287   -1.9744    0.0346 H   0  0  0  0  0  0
    5.0059   -2.8328   -0.3070 H   0  0  0  0  0  0
    5.1030   -2.3811    1.3865 H   0  0  0  0  0  0
    1.9887    3.3819   -2.8229 H   0  0  0  0  0  0
    2.4257    4.1962    1.3772 H   0  0  0  0  0  0
    4.5309    0.3270    1.9432 H   0  0  0  0  0  0
    3.9766   -0.7248   -2.2113 H   0  0  0  0  0  0
    2.3703    5.0011   -0.9749 H   0  0  0  0  0  0
    5.5777   -4.7928    1.0980 H   0  0  0  0  0  0
    4.1052   -4.5926    2.0384 H   0  0  0  0  0  0
    4.0141   -5.0480    0.3347 H   0  0  0  0  0  0
    6.5626    1.6225    1.3382 H   0  0  0  0  0  0
    6.0094    0.5734   -2.8055 H   0  0  0  0  0  0
    7.3017    1.7479   -1.0338 H   0  0  0  0  0  0
   -9.1602    0.4457   -0.1217 H   0  0  0  0  0  0
   -8.6778   -0.4534    1.2983 H   0  0  0  0  0  0
   -9.2946    1.8987    1.9057 H   0  0  0  0  0  0
   -7.5919    1.6152    2.2529 H   0  0  0  0  0  0
   -8.0606    2.5214    0.8140 H   0  0  0  0  0  0
   -1.4080   -0.5094    0.2856 N   0  3  0  0  0  0
   -1.4583   -1.4892    0.5270 H   0  0  0  0  0  0
  1 16  2  0  0  0
  2 29  2  0  0  0
  3  8  1  0  0  0
  3 15  1  0  0  0
  3 16  1  0  0  0
  4  5  1  0  0  0
  4 19  1  0  0  0
  4 29  1  0  0  0
  5  7  2  0  0  0
  6  7  1  0  0  0
  6 29  1  0  0  0
  6 31  1  0  0  0
  8  9  1  0  0  0
  8 10  1  0  0  0
  8 13  1  0  0  0
  9 11  1  0  0  0
  9 33  1  0  0  0
  9 34  1  0  0  0
 10 12  1  0  0  0
 10 35  1  0  0  0
 10 36  1  0  0  0
 11 37  1  0  0  0
 11 38  1  0  0  0
 11 65  1  0  0  0
 12 39  1  0  0  0
 12 40  1  0  0  0
 12 65  1  0  0  0
 13 17  2  0  0  0
 13 18  1  0  0  0
 14 19  1  0  0  0
 14 41  1  0  0  0
 14 42  1  0  0  0
 14 65  1  0  0  0
 15 23  2  0  0  0
 15 24  1  0  0  0
 16 20  1  0  0  0
 17 21  1  0  0  0
 17 43  1  0  0  0
 18 22  2  0  0  0
 18 44  1  0  0  0
 19 45  1  0  0  0
 19 46  1  0  0  0
 20 26  1  0  0  0
 20 47  1  0  0  0
 20 48  1  0  0  0
 21 25  2  0  0  0
 21 49  1  0  0  0
 22 25  1  0  0  0
 22 50  1  0  0  0
 23 27  1  0  0  0
 23 51  1  0  0  0
 24 28  2  0  0  0
 24 52  1  0  0  0
 25 53  1  0  0  0
 26 54  1  0  0  0
 26 55  1  0  0  0
 26 56  1  0  0  0
 27 30  2  0  0  0
 27 57  1  0  0  0
 28 30  1  0  0  0
 28 58  1  0  0  0
 30 59  1  0  0  0
 31 32  1  0  0  0
 31 60  1  0  0  0
 31 61  1  0  0  0
 32 62  1  0  0  0
 32 63  1  0  0  0
 32 64  1  0  0  0
 65 66  1  0  0  0
M  CHG  1  65   1
M  END
> <LID>
L002370

> <PC_CID>
14348736

> <Names>


> <CAS_Numbers>


$$$$
9819102
                    3D
 Structure written by MMmdl.
 51 54  0  0  1  0            999 V2000
   -2.9311   -2.8168    0.5541 O   0  0  0  0  0  0
   -3.1642   -0.7463   -0.4381 N   0  0  0  0  0  0
   -4.8793   -1.6093    0.6035 N   0  0  0  0  0  0
   -0.7771   -0.1764    0.0525 C   0  0  1  0  0  0
    0.6309   -0.1030   -0.5737 C   0  0  0  0  0  0
   -1.1081    1.1524    0.7598 C   0  0  0  0  0  0
   -0.0123    1.5075    1.7718 C   0  0  0  0  0  0
    1.3703    1.5341    1.1028 C   0  0  0  0  0  0
   -1.8300   -0.5614   -1.0093 C   0  0  0  0  0  0
    3.0402    0.1652   -0.1206 C   0  0  0  0  0  0
    4.1105   -0.0445    0.9650 C   0  0  0  0  0  0
   -4.2186    0.1767   -0.5483 C   0  0  0  0  0  0
   -3.5928   -1.8214    0.2662 C   0  0  0  0  0  0
   -5.2978   -0.3730    0.1116 C   0  0  0  0  0  0
    5.5007   -0.1686    0.3718 C   0  0  0  0  0  0
   -4.2936    1.4384   -1.1645 C   0  0  0  0  0  0
   -6.5351    0.2824    0.2084 C   0  0  0  0  0  0
   -5.5288    2.1245   -1.0840 C   0  0  0  0  0  0
    6.2786    0.9861    0.1423 C   0  0  0  0  0  0
    6.0203   -1.4380    0.0410 C   0  0  0  0  0  0
   -6.6374    1.5529   -0.4058 C   0  0  0  0  0  0
    7.5680    0.8715   -0.4131 C   0  0  0  0  0  0
    7.3097   -1.5516   -0.5145 C   0  0  0  0  0  0
    8.0838   -0.3972   -0.7415 C   0  0  0  0  0  0
   -0.7595   -0.9639    0.8079 H   0  0  0  0  0  0
    0.8695   -1.0675   -1.0244 H   0  0  0  0  0  0
    0.6520    0.6350   -1.3777 H   0  0  0  0  0  0
   -2.0665    1.0876    1.2756 H   0  0  0  0  0  0
   -1.2041    1.9521    0.0240 H   0  0  0  0  0  0
   -0.2254    2.4763    2.2248 H   0  0  0  0  0  0
   -0.0136    0.7799    2.5846 H   0  0  0  0  0  0
    1.4156    2.3403    0.3687 H   0  0  0  0  0  0
    2.1212    1.7562    1.8600 H   0  0  0  0  0  0
   -1.8618    0.1904   -1.7979 H   0  0  0  0  0  0
   -1.5359   -1.4907   -1.4999 H   0  0  0  0  0  0
    3.1020   -0.6743   -0.8149 H   0  0  0  0  0  0
    3.2499    1.0626   -0.7050 H   0  0  0  0  0  0
    4.1177    0.7814    1.6760 H   0  0  0  0  0  0
    3.8880   -0.9433    1.5418 H   0  0  0  0  0  0
   -5.4707   -2.2335    1.1321 H   0  0  0  0  0  0
   -3.4484    1.8732   -1.6768 H   0  0  0  0  0  0
   -7.3712   -0.1613    0.7286 H   0  0  0  0  0  0
   -5.6292    3.0965   -1.5441 H   0  0  0  0  0  0
    5.8894    1.9628    0.3904 H   0  0  0  0  0  0
    5.4325   -2.3283    0.2107 H   0  0  0  0  0  0
   -7.5704    2.0950   -0.3570 H   0  0  0  0  0  0
    8.1615    1.7569   -0.5876 H   0  0  0  0  0  0
    7.7052   -2.5246   -0.7667 H   0  0  0  0  0  0
    9.0725   -0.4847   -1.1673 H   0  0  0  0  0  0
    1.6658    0.2370    0.4381 N   0  3  2  0  0  0
    1.6071   -0.4794    1.1478 H   0  0  0  0  0  0
  1 13  2  0  0  0
  2  9  1  0  0  0
  2 12  1  0  0  0
  2 13  1  0  0  0
  3 13  1  0  0  0
  3 14  1  0  0  0
  3 40  1  0  0  0
  4  5  1  0  0  0
  4  6  1  0  0  0
  4  9  1  0  0  0
  4 25  1  0  0  0
  5 26  1  0  0  0
  5 27  1  0  0  0
  5 50  1  0  0  0
  6  7  1  0  0  0
  6 28  1  0  0  0
  6 29  1  0  0  0
  7  8  1  0  0  0
  7 30  1  0  0  0
  7 31  1  0  0  0
  8 32  1  0  0  0
  8 33  1  0  0  0
  8 50  1  0  0  0
  9 34  1  0  0  0
  9 35  1  0  0  0
 10 11  1  0  0  0
 10 36  1  0  0  0
 10 37  1  0  0  0
 10 50  1  0  0  0
 11 15  1  0  0  0
 11 38  1  0  0  0
 11 39  1  0  0  0
 12 14  1  0  0  0
 12 16  2  0  0  0
 14 17  2  0  0  0
 15 19  2  0  0  0
 15 20  1  0  0  0
 16 18  1  0  0  0
 16 41  1  0  0  0
 17 21  1  0  0  0
 17 42  1  0  0  0
 18 21  2  0  0  0
 18 43  1  0  0  0
 19 22  1  0  0  0
 19 44  1  0  0  0
 20 23  2  0  0  0
 20 45  1  0  0  0
 21 46  1  0  0  0
 22 24  2  0  0  0
 22 47  1  0  0  0
 23 24  1  0  0  0
 23 48  1  0  0  0
 24 49  1  0  0  0
 50 51  1  0  0  0
M  CHG  1  50   1
M  END
> <LID>
L021890

> <PC_CID>
9819102

> <Names>


> <CAS_Numbers>


$$$$
22253464
                    3D
 Structure written by MMmdl.
 66 68  0  0  1  0            999 V2000
    8.6698   -0.4831   -1.1962 S   0  0  0  0  0  0
   -7.7515   -2.6048    0.3198 O   0  0  0  0  0  0
   -1.5110    2.1305    1.6607 O   0  0  0  0  0  0
    8.9740   -0.7276    0.2217 O   0  0  0  0  0  0
    9.4226   -1.1783   -2.2505 O   0  0  0  0  0  0
   -1.5071   -0.1327    1.8554 N   0  0  0  0  0  0
    7.0005   -0.8324   -1.4469 N   0  0  0  0  0  0
   -5.5835   -1.5797    0.8481 C   0  0  0  0  0  0
   -7.0966   -1.6314    1.1061 C   0  0  1  0  0  0
   -6.3974    0.6346    1.2384 C   0  0  0  0  0  0
   -7.5814   -0.2189    0.7947 C   0  0  0  0  0  0
   -3.9867    0.1815    1.6505 C   0  0  0  0  0  0
   -2.6886   -0.3586    0.9948 C   0  0  1  0  0  0
   -2.4422    0.0818   -0.4536 C   0  0  0  0  0  0
   -0.9575    1.0975    2.0379 C   0  0  0  0  0  0
   -0.9565   -1.3482    2.4691 C   0  0  0  0  0  0
   -2.9868    1.2741   -0.9876 C   0  0  0  0  0  0
   -1.6145   -0.7181   -1.2723 C   0  0  0  0  0  0
    0.4339    1.2360    2.6801 C   0  0  0  0  0  0
   -2.7178    1.6473   -2.3186 C   0  0  0  0  0  0
   -1.3448   -0.3443   -2.6026 C   0  0  0  0  0  0
    1.5252    0.6727    1.7793 C   0  0  0  0  0  0
   -1.8987    0.8379   -3.1274 C   0  0  0  0  0  0
    1.7292    1.1999    0.4848 C   0  0  0  0  0  0
    2.3493   -0.3771    2.2373 C   0  0  0  0  0  0
    3.5490   -0.3851    0.1090 C   0  0  0  0  0  0
    4.6344   -0.9531   -0.7853 C   0  0  0  0  0  0
    2.7341    0.6711   -0.3476 C   0  0  0  0  0  0
    3.3550   -0.9053    1.4051 C   0  0  0  0  0  0
    5.9836   -0.2557   -0.5683 C   0  0  0  0  0  0
    8.7631    1.3241   -1.5165 C   0  0  0  0  0  0
   -5.0481   -2.1651    1.5971 H   0  0  0  0  0  0
   -5.3274   -1.9870   -0.1311 H   0  0  0  0  0  0
   -7.2754   -1.8480    2.1605 H   0  0  0  0  0  0
   -6.4280    0.7670    2.3215 H   0  0  0  0  0  0
   -6.3947    1.6227    0.7770 H   0  0  0  0  0  0
   -7.7427   -0.0942   -0.2774 H   0  0  0  0  0  0
   -8.5086    0.0366    1.3088 H   0  0  0  0  0  0
   -3.9331    1.2643    1.7630 H   0  0  0  0  0  0
   -4.0943   -0.2185    2.6601 H   0  0  0  0  0  0
   -2.8299   -1.4363    0.9059 H   0  0  0  0  0  0
   -7.6336   -2.3956   -0.5945 H   0  0  0  0  0  0
   -0.1870   -1.7781    1.8274 H   0  0  0  0  0  0
   -0.5248   -1.1668    3.4526 H   0  0  0  0  0  0
   -1.7212   -2.1099    2.6248 H   0  0  0  0  0  0
   -3.6021    1.9245   -0.3851 H   0  0  0  0  0  0
   -1.1771   -1.6240   -0.8783 H   0  0  0  0  0  0
    0.6462    2.2936    2.8426 H   0  0  0  0  0  0
    0.4561    0.7780    3.6684 H   0  0  0  0  0  0
   -3.1354    2.5600   -2.7177 H   0  0  0  0  0  0
   -0.7102   -0.9636   -3.2194 H   0  0  0  0  0  0
   -1.6906    1.1266   -4.1473 H   0  0  0  0  0  0
    1.1111    2.0090    0.1234 H   0  0  0  0  0  0
    2.2100   -0.7861    3.2273 H   0  0  0  0  0  0
    4.7302   -2.0224   -0.5911 H   0  0  0  0  0  0
    4.3245   -0.8568   -1.8268 H   0  0  0  0  0  0
    2.8777    1.0805   -1.3369 H   0  0  0  0  0  0
    3.9783   -1.7107    1.7655 H   0  0  0  0  0  0
    5.8976    0.8119   -0.7721 H   0  0  0  0  0  0
    6.3006   -0.3648    0.4696 H   0  0  0  0  0  0
    6.7386   -0.8998   -2.4301 H   0  0  0  0  0  0
    8.1543    1.8589   -0.7884 H   0  0  0  0  0  0
    9.7988    1.6505   -1.4262 H   0  0  0  0  0  0
    8.4041    1.5365   -2.5231 H   0  0  0  0  0  0
   -5.2000   -0.1460    0.8621 N   0  3  1  0  0  0
   -5.0002    0.1003   -0.0975 H   0  0  0  0  0  0
  1  4  2  0  0  0
  1  5  2  0  0  0
  1  7  1  0  0  0
  1 31  1  0  0  0
  2  9  1  0  0  0
  2 42  1  0  0  0
  3 15  2  0  0  0
  6 13  1  0  0  0
  6 15  1  0  0  0
  6 16  1  0  0  0
  7 30  1  0  0  0
  7 61  1  0  0  0
  8  9  1  0  0  0
  8 32  1  0  0  0
  8 33  1  0  0  0
  8 65  1  0  0  0
  9 11  1  0  0  0
  9 34  1  0  0  0
 10 11  1  0  0  0
 10 35  1  0  0  0
 10 36  1  0  0  0
 10 65  1  0  0  0
 11 37  1  0  0  0
 11 38  1  0  0  0
 12 13  1  0  0  0
 12 39  1  0  0  0
 12 40  1  0  0  0
 12 65  1  0  0  0
 13 14  1  0  0  0
 13 41  1  0  0  0
 14 17  2  0  0  0
 14 18  1  0  0  0
 15 19  1  0  0  0
 16 43  1  0  0  0
 16 44  1  0  0  0
 16 45  1  0  0  0
 17 20  1  0  0  0
 17 46  1  0  0  0
 18 21  2  0  0  0
 18 47  1  0  0  0
 19 22  1  0  0  0
 19 48  1  0  0  0
 19 49  1  0  0  0
 20 23  2  0  0  0
 20 50  1  0  0  0
 21 23  1  0  0  0
 21 51  1  0  0  0
 22 24  2  0  0  0
 22 25  1  0  0  0
 23 52  1  0  0  0
 24 28  1  0  0  0
 24 53  1  0  0  0
 25 29  2  0  0  0
 25 54  1  0  0  0
 26 27  1  0  0  0
 26 28  2  0  0  0
 26 29  1  0  0  0
 27 30  1  0  0  0
 27 55  1  0  0  0
 27 56  1  0  0  0
 28 57  1  0  0  0
 29 58  1  0  0  0
 30 59  1  0  0  0
 30 60  1  0  0  0
 31 62  1  0  0  0
 31 63  1  0  0  0
 31 64  1  0  0  0
 65 66  1  0  0  0
M  CHG  1  65   1
M  END
> <LID>
L023801

> <PC_CID>
22253464

> <Names>


> <CAS_Numbers>


$$$$
18359024
                    3D
 Structure written by MMmdl.
 66 68  0  0  1  0            999 V2000
   -1.8971    5.9267   -2.8085 O   0  0  0  0  0  0
   -4.0117   -2.3969    0.4339 O   0  0  0  0  0  0
    5.8266   -2.3612   -0.2276 O   0  0  0  0  0  0
   -5.5400   -4.4193   -0.3111 O   0  0  0  0  0  0
    0.0889    0.0523   -1.8617 N   0  0  0  0  0  0
    5.6316   -0.7286    1.3341 N   0  0  0  0  0  0
   -2.2425    3.7472   -1.8124 C   0  0  0  0  0  0
   -0.7427    4.6814   -0.2130 C   0  0  0  0  0  0
   -2.5132    5.2606   -1.7240 C   0  0  1  0  0  0
   -1.8586    5.7010   -0.4138 C   0  0  0  0  0  0
   -0.2757    2.3899   -1.0508 C   0  0  0  0  0  0
   -0.8841    0.9784   -1.2558 C   0  0  2  0  0  0
   -1.6545    0.3948   -0.0639 C   0  0  0  0  0  0
    1.2968   -0.3007   -1.3302 C   0  0  0  0  0  0
   -0.3388   -0.4757   -3.1591 C   0  0  0  0  0  0
   -2.4832   -0.7270   -0.2839 C   0  0  0  0  0  0
   -1.5831    0.9400    1.2399 C   0  0  0  0  0  0
   -3.2326   -1.3078    0.7586 C   0  0  0  0  0  0
    2.3201   -0.8292   -2.1577 C   0  0  0  0  0  0
    1.5855   -0.1534    0.0485 C   0  0  0  0  0  0
   -2.3227    0.3689    2.2913 C   0  0  0  0  0  0
   -3.1449   -0.7483    2.0564 C   0  0  0  0  0  0
    3.5734   -1.1950   -1.6309 C   0  0  0  0  0  0
    2.8371   -0.5189    0.5801 C   0  0  0  0  0  0
    3.8489   -1.0352   -0.2578 C   0  0  0  0  0  0
    5.1828   -1.4511    0.2949 C   0  0  0  0  0  0
   -4.7944   -2.9971    1.4610 C   0  0  0  0  0  0
    6.9108   -0.9298    2.0044 C   0  0  0  0  0  0
    8.0586   -0.2403    1.2496 C   0  0  0  0  0  0
   -5.6085   -4.1715    0.9135 C   0  0  0  0  0  0
    9.4091   -0.4122    1.9532 C   0  0  0  0  0  0
   -1.8426    3.4709   -2.7899 H   0  0  0  0  0  0
   -3.1607    3.1770   -1.6667 H   0  0  0  0  0  0
   -0.4302    4.6000    0.8286 H   0  0  0  0  0  0
    0.1270    4.9666   -0.8078 H   0  0  0  0  0  0
   -3.5801    5.4872   -1.7341 H   0  0  0  0  0  0
   -2.5790    5.6135    0.4008 H   0  0  0  0  0  0
   -1.5006    6.7314   -0.4281 H   0  0  0  0  0  0
    0.2527    2.7045   -1.9525 H   0  0  0  0  0  0
    0.4725    2.3687   -0.2585 H   0  0  0  0  0  0
   -1.6667    1.1314   -1.9988 H   0  0  0  0  0  0
   -2.3460    5.6924   -3.6071 H   0  0  0  0  0  0
   -0.0347   -1.5166   -3.2752 H   0  0  0  0  0  0
   -1.4215   -0.4583   -3.2852 H   0  0  0  0  0  0
    0.1040    0.1054   -3.9686 H   0  0  0  0  0  0
   -2.5516   -1.1550   -1.2732 H   0  0  0  0  0  0
   -0.9548    1.7888    1.4611 H   0  0  0  0  0  0
    2.1714   -0.9566   -3.2194 H   0  0  0  0  0  0
    0.8548    0.2316    0.7368 H   0  0  0  0  0  0
   -2.2580    0.7879    3.2847 H   0  0  0  0  0  0
   -3.6970   -1.1585    2.8882 H   0  0  0  0  0  0
    4.3264   -1.5955   -2.2947 H   0  0  0  0  0  0
    3.0045   -0.4035    1.6411 H   0  0  0  0  0  0
   -4.1504   -3.3663    2.2606 H   0  0  0  0  0  0
   -5.4875   -2.2690    1.8850 H   0  0  0  0  0  0
    5.0467    0.0185    1.6783 H   0  0  0  0  0  0
    6.8318   -0.5221    3.0126 H   0  0  0  0  0  0
    7.1125   -1.9966    2.1165 H   0  0  0  0  0  0
    8.1312   -0.6424    0.2383 H   0  0  0  0  0  0
    7.8418    0.8234    1.1437 H   0  0  0  0  0  0
   10.2032    0.0861    1.3967 H   0  0  0  0  0  0
    9.3879    0.0140    2.9565 H   0  0  0  0  0  0
    9.6755   -1.4659    2.0412 H   0  0  0  0  0  0
   -6.2969   -4.8070    1.7417 O   0  5  0  0  0  0
   -1.2988    3.4118   -0.7184 N   0  3  2  0  0  0
   -1.8606    3.0379    0.0336 H   0  0  0  0  0  0
  1  9  1  0  0  0
  1 42  1  0  0  0
  2 18  1  0  0  0
  2 27  1  0  0  0
  3 26  2  0  0  0
  4 30  2  0  0  0
  5 12  1  0  0  0
  5 14  1  0  0  0
  5 15  1  0  0  0
  6 26  1  0  0  0
  6 28  1  0  0  0
  6 56  1  0  0  0
  7  9  1  0  0  0
  7 32  1  0  0  0
  7 33  1  0  0  0
  7 65  1  0  0  0
  8 10  1  0  0  0
  8 34  1  0  0  0
  8 35  1  0  0  0
  8 65  1  0  0  0
  9 10  1  0  0  0
  9 36  1  0  0  0
 10 37  1  0  0  0
 10 38  1  0  0  0
 11 12  1  0  0  0
 11 39  1  0  0  0
 11 40  1  0  0  0
 11 65  1  0  0  0
 12 13  1  0  0  0
 12 41  1  0  0  0
 13 16  2  0  0  0
 13 17  1  0  0  0
 14 19  2  0  0  0
 14 20  1  0  0  0
 15 43  1  0  0  0
 15 44  1  0  0  0
 15 45  1  0  0  0
 16 18  1  0  0  0
 16 46  1  0  0  0
 17 21  2  0  0  0
 17 47  1  0  0  0
 18 22  2  0  0  0
 19 23  1  0  0  0
 19 48  1  0  0  0
 20 24  2  0  0  0
 20 49  1  0  0  0
 21 22  1  0  0  0
 21 50  1  0  0  0
 22 51  1  0  0  0
 23 25  2  0  0  0
 23 52  1  0  0  0
 24 25  1  0  0  0
 24 53  1  0  0  0
 25 26  1  0  0  0
 27 30  1  0  0  0
 27 54  1  0  0  0
 27 55  1  0  0  0
 28 29  1  0  0  0
 28 57  1  0  0  0
 28 58  1  0  0  0
 29 31  1  0  0  0
 29 59  1  0  0  0
 29 60  1  0  0  0
 30 64  1  0  0  0
 31 61  1  0  0  0
 31 62  1  0  0  0
 31 63  1  0  0  0
 65 66  1  0  0  0
M  CHG  2  64  -1  65   1
M  END
> <LID>
L017853

> <PC_CID>
18359024

> <Names>


> <CAS_Numbers>


$$$$
22253467
                    3D
 Structure written by MMmdl.
 69 71  0  0  1  0            999 V2000
    8.8616    1.6003    2.2102 S   0  0  0  0  0  0
   -5.4660    4.8723    1.4729 O   0  0  0  0  0  0
   -0.6893   -0.4706   -0.0616 O   0  0  0  0  0  0
    9.3879    2.3680    1.0716 O   0  0  0  0  0  0
    8.7084    2.2330    3.5284 O   0  0  0  0  0  0
   -2.5246   -0.6804   -1.3792 N   0  0  0  0  0  0
    7.3180    0.9779    1.7608 N   0  0  0  0  0  0
   -4.5841    2.8287    0.4358 C   0  0  0  0  0  0
   -5.5731    4.0012    0.3664 C   0  0  1  0  0  0
   -6.6429    2.0754   -0.5187 C   0  0  0  0  0  0
   -6.9423    3.3337    0.2901 C   0  0  0  0  0  0
   -4.5693    0.8071   -1.0497 C   0  0  0  0  0  0
   -3.3919    0.0291   -0.4049 C   0  0  1  0  0  0
   -3.8669   -0.8817    0.7271 C   0  0  0  0  0  0
   -1.1977   -0.8336   -1.1249 C   0  0  0  0  0  0
   -3.1352   -1.2023   -2.6127 C   0  0  0  0  0  0
   -4.5094   -2.1108    0.4558 C   0  0  0  0  0  0
   -3.6714   -0.4889    2.0699 C   0  0  0  0  0  0
   -0.2960   -1.4688   -2.2039 C   0  0  0  0  0  0
    1.1860   -1.2664   -1.9228 C   0  0  0  0  0  0
   -4.9493   -2.9326    1.5114 C   0  0  0  0  0  0
   -4.1114   -1.3108    3.1251 C   0  0  0  0  0  0
   -4.7511   -2.5331    2.8464 C   0  0  0  0  0  0
    3.9398   -0.8905   -1.4047 C   0  0  0  0  0  0
    1.8408   -0.1008   -2.3740 C   0  0  0  0  0  0
    1.9150   -2.2442   -1.2133 C   0  0  0  0  0  0
    5.4157   -0.6854   -1.1210 C   0  0  0  0  0  0
    5.6542    0.0541    0.2032 C   0  0  0  0  0  0
    3.2123    0.0868   -2.1149 C   0  0  0  0  0  0
    3.2864   -2.0563   -0.9543 C   0  0  0  0  0  0
    7.1453    0.2663    0.4950 C   0  0  0  0  0  0
    9.8735    0.0798    2.4146 C   0  0  0  0  0  0
   -3.6865    3.0494   -0.1441 H   0  0  0  0  0  0
   -4.2707    2.6299    1.4615 H   0  0  0  0  0  0
   -5.3979    4.5674   -0.5498 H   0  0  0  0  0  0
   -6.6072    2.3248   -1.5808 H   0  0  0  0  0  0
   -7.3946    1.2977   -0.3795 H   0  0  0  0  0  0
   -7.2919    3.0561    1.2860 H   0  0  0  0  0  0
   -7.7005    3.9676   -0.1710 H   0  0  0  0  0  0
   -5.2918    0.1108   -1.4746 H   0  0  0  0  0  0
   -4.2184    1.4393   -1.8671 H   0  0  0  0  0  0
   -2.7752    0.8031    0.0552 H   0  0  0  0  0  0
   -5.6593    4.3934    2.2646 H   0  0  0  0  0  0
   -2.7027   -2.1548   -2.9193 H   0  0  0  0  0  0
   -4.1992   -1.4024   -2.5123 H   0  0  0  0  0  0
   -3.0036   -0.4908   -3.4286 H   0  0  0  0  0  0
   -4.6733   -2.4347   -0.5601 H   0  0  0  0  0  0
   -3.1778    0.4441    2.2997 H   0  0  0  0  0  0
   -0.5047   -2.5375   -2.2643 H   0  0  0  0  0  0
   -0.5193   -1.0400   -3.1815 H   0  0  0  0  0  0
   -5.4394   -3.8709    1.2966 H   0  0  0  0  0  0
   -3.9560   -1.0045    4.1492 H   0  0  0  0  0  0
   -5.0878   -3.1644    3.6556 H   0  0  0  0  0  0
    1.2920    0.6546   -2.9171 H   0  0  0  0  0  0
    1.4232   -3.1393   -0.8616 H   0  0  0  0  0  0
    5.9132   -1.6560   -1.1023 H   0  0  0  0  0  0
    5.8623   -0.1285   -1.9458 H   0  0  0  0  0  0
    5.1489    1.0206    0.1741 H   0  0  0  0  0  0
    5.1993   -0.5092    1.0193 H   0  0  0  0  0  0
    3.7036    0.9845   -2.4610 H   0  0  0  0  0  0
    3.8345   -2.8089   -0.4065 H   0  0  0  0  0  0
    7.6623   -0.6920    0.5491 H   0  0  0  0  0  0
    7.6085    0.8421   -0.3071 H   0  0  0  0  0  0
    6.7794    0.6093    2.5443 H   0  0  0  0  0  0
    9.9456   -0.4453    1.4629 H   0  0  0  0  0  0
   10.8734    0.3575    2.7471 H   0  0  0  0  0  0
    9.4128   -0.5691    3.1588 H   0  0  0  0  0  0
   -5.3081    1.6321   -0.0623 N   0  3  1  0  0  0
   -5.4728    1.0451    0.7439 H   0  0  0  0  0  0
  1  4  2  0  0  0
  1  5  2  0  0  0
  1  7  1  0  0  0
  1 32  1  0  0  0
  2  9  1  0  0  0
  2 43  1  0  0  0
  3 15  2  0  0  0
  6 13  1  0  0  0
  6 15  1  0  0  0
  6 16  1  0  0  0
  7 31  1  0  0  0
  7 64  1  0  0  0
  8  9  1  0  0  0
  8 33  1  0  0  0
  8 34  1  0  0  0
  8 68  1  0  0  0
  9 11  1  0  0  0
  9 35  1  0  0  0
 10 11  1  0  0  0
 10 36  1  0  0  0
 10 37  1  0  0  0
 10 68  1  0  0  0
 11 38  1  0  0  0
 11 39  1  0  0  0
 12 13  1  0  0  0
 12 40  1  0  0  0
 12 41  1  0  0  0
 12 68  1  0  0  0
 13 14  1  0  0  0
 13 42  1  0  0  0
 14 17  2  0  0  0
 14 18  1  0  0  0
 15 19  1  0  0  0
 16 44  1  0  0  0
 16 45  1  0  0  0
 16 46  1  0  0  0
 17 21  1  0  0  0
 17 47  1  0  0  0
 18 22  2  0  0  0
 18 48  1  0  0  0
 19 20  1  0  0  0
 19 49  1  0  0  0
 19 50  1  0  0  0
 20 25  2  0  0  0
 20 26  1  0  0  0
 21 23  2  0  0  0
 21 51  1  0  0  0
 22 23  1  0  0  0
 22 52  1  0  0  0
 23 53  1  0  0  0
 24 27  1  0  0  0
 24 29  2  0  0  0
 24 30  1  0  0  0
 25 29  1  0  0  0
 25 54  1  0  0  0
 26 30  2  0  0  0
 26 55  1  0  0  0
 27 28  1  0  0  0
 27 56  1  0  0  0
 27 57  1  0  0  0
 28 31  1  0  0  0
 28 58  1  0  0  0
 28 59  1  0  0  0
 29 60  1  0  0  0
 30 61  1  0  0  0
 31 62  1  0  0  0
 31 63  1  0  0  0
 32 65  1  0  0  0
 32 66  1  0  0  0
 32 67  1  0  0  0
 68 69  1  0  0  0
M  CHG  1  68   1
M  END
> <LID>
L023803

> <PC_CID>
22253467

> <Names>


> <CAS_Numbers>


$$$$
60764
                    3D
 Structure written by MMmdl.
 59 60  0  0  1  0            999 V2000
    0.6288    0.0546    0.4649 O   0  0  0  0  0  0
   -3.9229   -0.5287   -1.9387 O   0  0  0  0  0  0
   -4.8772    0.2848    2.7473 O   0  0  0  0  0  0
   -5.7152    0.0630   -0.0152 O   0  0  0  0  0  0
    2.8665    0.5050   -0.3897 C   0  0  1  0  0  0
    2.4117   -0.1842   -1.7251 C   0  0  0  0  0  0
    2.0079   -0.1240    0.7497 C   0  0  0  0  0  0
    4.3844    0.2739   -0.1662 C   0  0  0  0  0  0
    2.6538   -1.7026   -1.8166 C   0  0  0  0  0  0
    3.2236    2.7705    0.6859 C   0  0  0  0  0  0
    2.6400    2.6978   -1.6815 C   0  0  0  0  0  0
    5.3044    0.5043   -1.2201 C   0  0  0  0  0  0
    4.9049   -0.1528    1.0837 C   0  0  0  0  0  0
   -0.2251   -0.5433    1.4268 C   0  0  0  0  0  0
    6.6868    0.3108   -1.0378 C   0  0  0  0  0  0
    6.2876   -0.3463    1.2668 C   0  0  0  0  0  0
    7.1808   -0.1157    0.2066 C   0  0  0  0  0  0
   -1.6859   -0.3845    1.0527 C   0  0  0  0  0  0
   -2.6450   -0.1077    2.0450 C   0  0  0  0  0  0
   -2.0940   -0.5474   -0.2856 C   0  0  0  0  0  0
   -3.4563   -0.4041   -0.6462 C   0  0  0  0  0  0
   -4.0080    0.0160    1.7147 C   0  0  0  0  0  0
   -4.4075   -0.1082    0.3573 C   0  0  0  0  0  0
   -2.9878   -0.8159   -2.9682 C   0  0  0  0  0  0
   -6.0860   -0.4616    2.7776 C   0  0  0  0  0  0
   -6.0502    1.4188   -0.2612 C   0  0  0  0  0  0
    2.9166    0.2544   -2.5840 H   0  0  0  0  0  0
    1.3519    0.0012   -1.9039 H   0  0  0  0  0  0
    2.2114    0.3303    1.7187 H   0  0  0  0  0  0
    2.2257   -1.1868    0.8605 H   0  0  0  0  0  0
    2.3901   -2.0682   -2.8093 H   0  0  0  0  0  0
    3.6985   -1.9610   -1.6444 H   0  0  0  0  0  0
    2.0452   -2.2583   -1.1042 H   0  0  0  0  0  0
    2.7769    3.7625    0.7605 H   0  0  0  0  0  0
    3.1313    2.3095    1.6677 H   0  0  0  0  0  0
    4.2851    2.9051    0.4734 H   0  0  0  0  0  0
    2.3745    3.7480   -1.5550 H   0  0  0  0  0  0
    3.6475    2.6650   -2.0939 H   0  0  0  0  0  0
    1.9422    2.2995   -2.4173 H   0  0  0  0  0  0
    4.9682    0.8346   -2.1898 H   0  0  0  0  0  0
    4.2678   -0.3408    1.9328 H   0  0  0  0  0  0
   -0.0089   -1.6096    1.5088 H   0  0  0  0  0  0
   -0.0444   -0.0965    2.4058 H   0  0  0  0  0  0
    7.3692    0.4910   -1.8554 H   0  0  0  0  0  0
    6.6638   -0.6723    2.2254 H   0  0  0  0  0  0
    8.2413   -0.2644    0.3478 H   0  0  0  0  0  0
   -2.3391    0.0016    3.0753 H   0  0  0  0  0  0
   -1.3405   -0.7754   -1.0239 H   0  0  0  0  0  0
   -3.5118   -0.8789   -3.9218 H   0  0  0  0  0  0
   -2.2371   -0.0294   -3.0564 H   0  0  0  0  0  0
   -2.4920   -1.7731   -2.8012 H   0  0  0  0  0  0
   -6.4171   -0.5639    3.8109 H   0  0  0  0  0  0
   -6.8781    0.0510    2.2322 H   0  0  0  0  0  0
   -5.9640   -1.4664    2.3695 H   0  0  0  0  0  0
   -7.0984    1.4894   -0.5510 H   0  0  0  0  0  0
   -5.9059    2.0313    0.6299 H   0  0  0  0  0  0
   -5.4484    1.8333   -1.0713 H   0  0  0  0  0  0
    2.5517    1.9824   -0.3820 N   0  3  0  0  0  0
    1.5676    2.0131   -0.1527 H   0  0  0  0  0  0
  1  7  1  0  0  0
  1 14  1  0  0  0
  2 21  1  0  0  0
  2 24  1  0  0  0
  3 22  1  0  0  0
  3 25  1  0  0  0
  4 23  1  0  0  0
  4 26  1  0  0  0
  5  6  1  0  0  0
  5  7  1  0  0  0
  5  8  1  0  0  0
  5 58  1  0  0  0
  6  9  1  0  0  0
  6 27  1  0  0  0
  6 28  1  0  0  0
  7 29  1  0  0  0
  7 30  1  0  0  0
  8 12  2  0  0  0
  8 13  1  0  0  0
  9 31  1  0  0  0
  9 32  1  0  0  0
  9 33  1  0  0  0
 10 34  1  0  0  0
 10 35  1  0  0  0
 10 36  1  0  0  0
 10 58  1  0  0  0
 11 37  1  0  0  0
 11 38  1  0  0  0
 11 39  1  0  0  0
 11 58  1  0  0  0
 12 15  1  0  0  0
 12 40  1  0  0  0
 13 16  2  0  0  0
 13 41  1  0  0  0
 14 18  1  0  0  0
 14 42  1  0  0  0
 14 43  1  0  0  0
 15 17  2  0  0  0
 15 44  1  0  0  0
 16 17  1  0  0  0
 16 45  1  0  0  0
 17 46  1  0  0  0
 18 19  2  0  0  0
 18 20  1  0  0  0
 19 22  1  0  0  0
 19 47  1  0  0  0
 20 21  2  0  0  0
 20 48  1  0  0  0
 21 23  1  0  0  0
 22 23  2  0  0  0
 24 49  1  0  0  0
 24 50  1  0  0  0
 24 51  1  0  0  0
 25 52  1  0  0  0
 25 53  1  0  0  0
 25 54  1  0  0  0
 26 55  1  0  0  0
 26 56  1  0  0  0
 26 57  1  0  0  0
 58 59  1  0  0  0
M  CHG  1  58   1
M  END
> <LID>
L001387

> <PC_CID>
60764

> <Names>
fedotozine

> <CAS_Numbers>
123618-00-8;133267-27-3;78483-34-8

$$$$
18687634
                    3D
 Structure written by MMmdl.
 52 54  0  0  1  0            999 V2000
   -7.6360   -1.0771    1.1514 F   0  0  0  0  0  0
   -7.3129    0.8254    0.1647 F   0  0  0  0  0  0
   -7.1283   -1.0132   -0.9547 F   0  0  0  0  0  0
    1.4587   -0.5836    2.1573 O   0  0  0  0  0  0
   -0.7728    0.3981   -0.3279 O   0  0  0  0  0  0
    0.9643    0.2105    1.0925 N   0  0  0  0  0  0
    3.6327    3.3976   -0.5460 C   0  0  0  0  0  0
    5.2851    1.7279   -0.0123 C   0  0  0  0  0  0
    4.6198    3.2676   -1.7112 C   0  0  0  0  0  0
    5.8650    2.6549   -1.0776 C   0  0  0  0  0  0
    3.0390    1.5978    1.1692 C   0  0  0  0  0  0
    2.0294    0.8147    0.2763 C   0  0  1  0  0  0
    2.6646   -0.1902   -0.6838 C   0  0  0  0  0  0
   -0.3183   -0.0209    0.7374 C   0  0  0  0  0  0
    3.3401   -1.3380   -0.2084 C   0  0  0  0  0  0
    2.5823    0.0312   -2.0765 C   0  0  0  0  0  0
   -1.2356   -0.7766    1.7202 C   0  0  0  0  0  0
    3.9254   -2.2456   -1.1120 C   0  0  0  0  0  0
    3.1681   -0.8764   -2.9796 C   0  0  0  0  0  0
   -2.7045   -0.6899    1.3329 C   0  0  0  0  0  0
    3.8400   -2.0153   -2.4979 C   0  0  0  0  0  0
   -3.4972    0.3832    1.7907 C   0  0  0  0  0  0
   -3.2849   -1.6853    0.5191 C   0  0  0  0  0  0
   -5.4384   -0.5267    0.6107 C   0  0  0  0  0  0
   -4.8569    0.4632    1.4325 C   0  0  0  0  0  0
   -4.6446   -1.6043    0.1613 C   0  0  0  0  0  0
   -6.9097   -0.4439    0.2312 C   0  0  0  0  0  0
    2.6075    3.2728   -0.8868 H   0  0  0  0  0  0
    3.6989    4.3939   -0.1077 H   0  0  0  0  0  0
    5.9898    1.5330    0.7966 H   0  0  0  0  0  0
    5.0438    0.7743   -0.4728 H   0  0  0  0  0  0
    4.8196    4.2194   -2.2044 H   0  0  0  0  0  0
    4.2178    2.5831   -2.4594 H   0  0  0  0  0  0
    6.4945    2.1313   -1.7979 H   0  0  0  0  0  0
    6.4657    3.4352   -0.6081 H   0  0  0  0  0  0
    3.5575    0.9171    1.8456 H   0  0  0  0  0  0
    2.4734    2.2770    1.8083 H   0  0  0  0  0  0
    1.5135    1.5502   -0.3381 H   0  0  0  0  0  0
    3.4279   -1.5261    0.8507 H   0  0  0  0  0  0
    2.0692    0.9001   -2.4620 H   0  0  0  0  0  0
   -0.9368   -1.8249    1.7601 H   0  0  0  0  0  0
   -1.1146   -0.3698    2.7254 H   0  0  0  0  0  0
    0.8322   -1.2888    2.2189 H   0  0  0  0  0  0
    4.4426   -3.1184   -0.7413 H   0  0  0  0  0  0
    3.1009   -0.6991   -4.0430 H   0  0  0  0  0  0
    4.2892   -2.7117   -3.1906 H   0  0  0  0  0  0
   -3.0643    1.1496    2.4170 H   0  0  0  0  0  0
   -2.6882   -2.5129    0.1643 H   0  0  0  0  0  0
   -5.4527    1.2887    1.7931 H   0  0  0  0  0  0
   -5.0762   -2.3752   -0.4598 H   0  0  0  0  0  0
    4.0750    2.4229    0.4821 N   0  3  0  0  0  0
    4.4394    3.0113    1.2180 H   0  0  0  0  0  0
  1 27  1  0  0  0
  2 27  1  0  0  0
  3 27  1  0  0  0
  4  6  1  0  0  0
  4 43  1  0  0  0
  5 14  2  0  0  0
  6 12  1  0  0  0
  6 14  1  0  0  0
  7  9  1  0  0  0
  7 28  1  0  0  0
  7 29  1  0  0  0
  7 51  1  0  0  0
  8 10  1  0  0  0
  8 30  1  0  0  0
  8 31  1  0  0  0
  8 51  1  0  0  0
  9 10  1  0  0  0
  9 32  1  0  0  0
  9 33  1  0  0  0
 10 34  1  0  0  0
 10 35  1  0  0  0
 11 12  1  0  0  0
 11 36  1  0  0  0
 11 37  1  0  0  0
 11 51  1  0  0  0
 12 13  1  0  0  0
 12 38  1  0  0  0
 13 15  2  0  0  0
 13 16  1  0  0  0
 14 17  1  0  0  0
 15 18  1  0  0  0
 15 39  1  0  0  0
 16 19  2  0  0  0
 16 40  1  0  0  0
 17 20  1  0  0  0
 17 41  1  0  0  0
 17 42  1  0  0  0
 18 21  2  0  0  0
 18 44  1  0  0  0
 19 21  1  0  0  0
 19 45  1  0  0  0
 20 22  2  0  0  0
 20 23  1  0  0  0
 21 46  1  0  0  0
 22 25  1  0  0  0
 22 47  1  0  0  0
 23 26  2  0  0  0
 23 48  1  0  0  0
 24 25  2  0  0  0
 24 26  1  0  0  0
 24 27  1  0  0  0
 25 49  1  0  0  0
 26 50  1  0  0  0
 51 52  1  0  0  0
M  CHG  1  51   1
M  END
> <LID>
L015589

> <PC_CID>
18687634

> <Names>


> <CAS_Numbers>


$$$$
15123222
                    3D
 Structure written by MMmdl.
 55 57  0  0  1  0            999 V2000
   -6.9078    1.9715   -1.8414 Cl  0  0  0  0  0  0
   -6.6874    3.7512    0.7956 Cl  0  0  0  0  0  0
   -1.8370   -0.0901   -0.7673 O   0  0  0  0  0  0
    6.7919    1.5123   -0.5070 O   0  0  0  0  0  0
    6.4656    3.7404   -0.2078 O   0  0  0  0  0  0
   -1.1779   -2.1824   -0.1779 N   0  0  0  0  0  0
    0.2117   -1.9260   -0.6591 C   0  0  2  0  0  0
    1.0032   -3.2005   -1.0510 C   0  0  0  0  0  0
    0.9832   -1.0503    0.3666 C   0  0  0  0  0  0
    0.1329   -4.4321   -1.2601 C   0  0  0  0  0  0
   -1.5633   -3.5074    0.3642 C   0  0  0  0  0  0
   -0.6139   -4.6701    0.0438 C   0  0  0  0  0  0
    3.4542   -1.2723   -0.0783 C   0  0  0  0  0  0
    2.5633    0.8614    0.4142 C   0  0  0  0  0  0
    4.6223   -0.2950   -0.2200 C   0  0  0  0  0  0
    4.0284    1.0590    0.1042 C   0  0  0  0  0  0
   -2.1015   -1.1836   -0.2610 C   0  0  0  0  0  0
   -3.5183   -1.4100    0.3099 C   0  0  0  0  0  0
    4.6227    2.2739    0.0920 C   0  0  0  0  0  0
   -4.3157   -0.1185    0.4254 C   0  0  0  0  0  0
    6.0365    2.5865   -0.2185 C   0  0  0  0  0  0
   -5.1548    0.2955   -0.6308 C   0  0  0  0  0  0
   -4.2226    0.6709    1.5908 C   0  0  0  0  0  0
   -5.8929    1.4913   -0.5281 C   0  0  0  0  0  0
   -4.9598    1.8659    1.6961 C   0  0  0  0  0  0
   -5.7951    2.2798    0.6398 C   0  0  0  0  0  0
    8.1644    1.6778   -0.8213 C   0  0  0  0  0  0
    0.1242   -1.3569   -1.5872 H   0  0  0  0  0  0
    1.5924   -3.0106   -1.9489 H   0  0  0  0  0  0
    1.7212   -3.4450   -0.2676 H   0  0  0  0  0  0
    0.3422   -0.2261    0.6812 H   0  0  0  0  0  0
    1.1964   -1.6118    1.2774 H   0  0  0  0  0  0
   -0.5618   -4.2864   -2.0885 H   0  0  0  0  0  0
    0.7524   -5.2951   -1.5062 H   0  0  0  0  0  0
   -2.5295   -3.7922   -0.0540 H   0  0  0  0  0  0
   -1.7004   -3.4384    1.4442 H   0  0  0  0  0  0
    0.1032   -4.7915    0.8571 H   0  0  0  0  0  0
   -1.1736   -5.6049   -0.0040 H   0  0  0  0  0  0
    3.4962   -1.7507    0.9016 H   0  0  0  0  0  0
    3.4983   -2.0515   -0.8379 H   0  0  0  0  0  0
    2.4360    0.8294    1.4976 H   0  0  0  0  0  0
    1.9423    1.6621    0.0101 H   0  0  0  0  0  0
    4.9918   -0.2904   -1.2462 H   0  0  0  0  0  0
    5.4447   -0.5521    0.4486 H   0  0  0  0  0  0
   -4.0608   -2.1048   -0.3322 H   0  0  0  0  0  0
   -3.4606   -1.8624    1.3003 H   0  0  0  0  0  0
    4.0098    3.1293    0.3374 H   0  0  0  0  0  0
   -5.2304   -0.3031   -1.5269 H   0  0  0  0  0  0
   -3.5835    0.3638    2.4058 H   0  0  0  0  0  0
   -4.8831    2.4668    2.5903 H   0  0  0  0  0  0
    8.6167    0.7077   -1.0264 H   0  0  0  0  0  0
    8.2884    2.3049   -1.7050 H   0  0  0  0  0  0
    8.7018    2.1350    0.0105 H   0  0  0  0  0  0
    2.2276   -0.4493   -0.1831 N   0  3  2  0  0  0
    2.0736   -0.2710   -1.1655 H   0  0  0  0  0  0
  1 24  1  0  0  0
  2 26  1  0  0  0
  3 17  2  0  0  0
  4 21  1  0  0  0
  4 27  1  0  0  0
  5 21  2  0  0  0
  6  7  1  0  0  0
  6 11  1  0  0  0
  6 17  1  0  0  0
  7  8  1  0  0  0
  7  9  1  0  0  0
  7 28  1  0  0  0
  8 10  1  0  0  0
  8 29  1  0  0  0
  8 30  1  0  0  0
  9 31  1  0  0  0
  9 32  1  0  0  0
  9 54  1  0  0  0
 10 12  1  0  0  0
 10 33  1  0  0  0
 10 34  1  0  0  0
 11 12  1  0  0  0
 11 35  1  0  0  0
 11 36  1  0  0  0
 12 37  1  0  0  0
 12 38  1  0  0  0
 13 15  1  0  0  0
 13 39  1  0  0  0
 13 40  1  0  0  0
 13 54  1  0  0  0
 14 16  1  0  0  0
 14 41  1  0  0  0
 14 42  1  0  0  0
 14 54  1  0  0  0
 15 16  1  0  0  0
 15 43  1  0  0  0
 15 44  1  0  0  0
 16 19  2  0  0  0
 17 18  1  0  0  0
 18 20  1  0  0  0
 18 45  1  0  0  0
 18 46  1  0  0  0
 19 21  1  0  0  0
 19 47  1  0  0  0
 20 22  2  0  0  0
 20 23  1  0  0  0
 22 24  1  0  0  0
 22 48  1  0  0  0
 23 25  2  0  0  0
 23 49  1  0  0  0
 24 26  2  0  0  0
 25 26  1  0  0  0
 25 50  1  0  0  0
 27 51  1  0  0  0
 27 52  1  0  0  0
 27 53  1  0  0  0
 54 55  1  0  0  0
M  CHG  1  54   1
M  END
> <LID>
L003140

> <PC_CID>
15123222

> <Names>


> <CAS_Numbers>


$$$$
15123220
                    3D
 Structure written by MMmdl.
 49 51  0  0  1  0            999 V2000
    6.1175   -0.1303   -2.2208 Cl  0  0  0  0  0  0
    6.6304    2.1252   -0.0254 Cl  0  0  0  0  0  0
    0.6997   -0.0662   -0.8907 O   0  0  0  0  0  0
   -0.6038   -1.6377    0.1046 N   0  0  0  0  0  0
   -1.8438   -1.0286   -0.4610 C   0  0  1  0  0  0
   -3.0365   -2.0094   -0.6023 C   0  0  0  0  0  0
   -2.2271    0.2487    0.3364 C   0  0  0  0  0  0
   -2.6455   -3.4786   -0.5205 C   0  0  0  0  0  0
   -0.6680   -2.8710    0.9251 C   0  0  0  0  0  0
   -1.9687   -3.6800    0.8270 C   0  0  0  0  0  0
   -4.6454    0.7924   -0.1324 C   0  0  0  0  0  0
   -3.0580    2.5525   -0.0625 C   0  0  0  0  0  0
   -5.4225    2.0576   -0.5043 C   0  0  0  0  0  0
   -4.3920    3.1524   -0.4295 C   0  0  0  0  0  0
    0.5993   -1.0541   -0.1585 C   0  0  0  0  0  0
    1.8788   -1.6263    0.4896 C   0  0  0  0  0  0
   -4.6150    4.4476   -0.6984 C   0  0  0  0  0  0
    3.0717   -0.6904    0.3550 C   0  0  0  0  0  0
    3.9543   -0.8168   -0.7386 C   0  0  0  0  0  0
    3.3034    0.3075    1.3247 C   0  0  0  0  0  0
    5.0584    0.0490   -0.8674 C   0  0  0  0  0  0
    4.4064    1.1735    1.1986 C   0  0  0  0  0  0
    5.2855    1.0482    0.1048 C   0  0  0  0  0  0
   -1.6091   -0.7273   -1.4841 H   0  0  0  0  0  0
   -3.7614   -1.8265    0.1914 H   0  0  0  0  0  0
   -3.5632   -1.8214   -1.5386 H   0  0  0  0  0  0
   -2.5791   -0.0062    1.3371 H   0  0  0  0  0  0
   -1.3311    0.8505    0.4920 H   0  0  0  0  0  0
   -1.9788   -3.7541   -1.3388 H   0  0  0  0  0  0
   -3.5310   -4.1102   -0.5990 H   0  0  0  0  0  0
   -0.4689   -2.6296    1.9701 H   0  0  0  0  0  0
    0.1251   -3.5485    0.6062 H   0  0  0  0  0  0
   -1.7623   -4.7377    0.9945 H   0  0  0  0  0  0
   -2.6485   -3.3773    1.6249 H   0  0  0  0  0  0
   -4.8066    0.5634    0.9222 H   0  0  0  0  0  0
   -4.9804   -0.0617   -0.7193 H   0  0  0  0  0  0
   -2.8863    2.7041    1.0046 H   0  0  0  0  0  0
   -2.2345    2.9989   -0.6213 H   0  0  0  0  0  0
   -6.2606    2.2419    0.1687 H   0  0  0  0  0  0
   -5.8035    1.9962   -1.5245 H   0  0  0  0  0  0
    1.7147   -1.8157    1.5508 H   0  0  0  0  0  0
    2.1242   -2.5817    0.0245 H   0  0  0  0  0  0
   -3.8186    5.1755   -0.6441 H   0  0  0  0  0  0
   -5.5983    4.7985   -0.9762 H   0  0  0  0  0  0
    3.7828   -1.5778   -1.4860 H   0  0  0  0  0  0
    2.6343    0.4137    2.1662 H   0  0  0  0  0  0
    4.5776    1.9366    1.9436 H   0  0  0  0  0  0
   -3.2155    1.1119   -0.3635 N   0  3  1  0  0  0
   -3.0507    1.0224   -1.3562 H   0  0  0  0  0  0
  1 21  1  0  0  0
  2 23  1  0  0  0
  3 15  2  0  0  0
  4  5  1  0  0  0
  4  9  1  0  0  0
  4 15  1  0  0  0
  5  6  1  0  0  0
  5  7  1  0  0  0
  5 24  1  0  0  0
  6  8  1  0  0  0
  6 25  1  0  0  0
  6 26  1  0  0  0
  7 27  1  0  0  0
  7 28  1  0  0  0
  7 48  1  0  0  0
  8 10  1  0  0  0
  8 29  1  0  0  0
  8 30  1  0  0  0
  9 10  1  0  0  0
  9 31  1  0  0  0
  9 32  1  0  0  0
 10 33  1  0  0  0
 10 34  1  0  0  0
 11 13  1  0  0  0
 11 35  1  0  0  0
 11 36  1  0  0  0
 11 48  1  0  0  0
 12 14  1  0  0  0
 12 37  1  0  0  0
 12 38  1  0  0  0
 12 48  1  0  0  0
 13 14  1  0  0  0
 13 39  1  0  0  0
 13 40  1  0  0  0
 14 17  2  0  0  0
 15 16  1  0  0  0
 16 18  1  0  0  0
 16 41  1  0  0  0
 16 42  1  0  0  0
 17 43  1  0  0  0
 17 44  1  0  0  0
 18 19  2  0  0  0
 18 20  1  0  0  0
 19 21  1  0  0  0
 19 45  1  0  0  0
 20 22  2  0  0  0
 20 46  1  0  0  0
 21 23  2  0  0  0
 22 23  1  0  0  0
 22 47  1  0  0  0
 48 49  1  0  0  0
M  CHG  1  48   1
M  END
> <LID>
L003138

> <PC_CID>
15123220

> <Names>


> <CAS_Numbers>


$$$$
15123224
                    3D
 Structure written by MMmdl.
 50 52  0  0  1  0            999 V2000
    6.2472    1.3876   -2.3788 Cl  0  0  0  0  0  0
    6.3540    3.3895    0.1012 Cl  0  0  0  0  0  0
    1.0916   -0.0932   -0.8477 O   0  0  0  0  0  0
    0.2879   -2.0594   -0.0431 N   0  0  0  0  0  0
   -7.6496    3.2409   -0.2008 N   0  0  0  0  0  0
   -1.1010   -1.7139   -0.4672 C   0  0  1  0  0  0
   -2.0255   -2.9363   -0.7030 C   0  0  0  0  0  0
   -1.7255   -0.6893    0.5198 C   0  0  0  0  0  0
   -1.2829   -4.2572   -0.8505 C   0  0  0  0  0  0
    0.5873   -3.3659    0.5907 C   0  0  0  0  0  0
   -0.4802   -4.4564    0.4264 C   0  0  0  0  0  0
   -4.2307   -0.7141    0.2279 C   0  0  0  0  0  0
   -3.1189    1.3641    0.4865 C   0  0  0  0  0  0
   -5.3162    0.3522    0.0659 C   0  0  0  0  0  0
   -4.5836    1.6538    0.2706 C   0  0  0  0  0  0
    1.2895   -1.1619   -0.2639 C   0  0  0  0  0  0
    2.7139   -1.4731    0.2448 C   0  0  0  0  0  0
   -5.1291    2.8806    0.2239 C   0  0  0  0  0  0
    3.6288   -0.2572    0.2027 C   0  0  0  0  0  0
    4.4325   -0.0116   -0.9308 C   0  0  0  0  0  0
    3.6805    0.6300    1.2982 C   0  0  0  0  0  0
   -6.5188    3.0912   -0.0086 C   0  0  0  0  0  0
    5.2791    1.1139   -0.9740 C   0  0  0  0  0  0
    4.5263    1.7549    1.2576 C   0  0  0  0  0  0
    5.3263    2.0008    0.1243 C   0  0  0  0  0  0
   -1.0219   -1.2328   -1.4445 H   0  0  0  0  0  0
   -2.7125   -3.0474    0.1365 H   0  0  0  0  0  0
   -2.6497   -2.7663   -1.5809 H   0  0  0  0  0  0
   -1.9314   -1.1527    1.4858 H   0  0  0  0  0  0
   -0.9946    0.0930    0.7269 H   0  0  0  0  0  0
   -1.9908   -5.0756   -0.9858 H   0  0  0  0  0  0
   -0.6311   -4.2462   -1.7253 H   0  0  0  0  0  0
    0.7981   -3.2217    1.6513 H   0  0  0  0  0  0
    1.4959   -3.7736    0.1460 H   0  0  0  0  0  0
   -0.0102   -5.4405    0.4303 H   0  0  0  0  0  0
   -1.1528   -4.4421    1.2853 H   0  0  0  0  0  0
   -4.3891   -1.5444   -0.4590 H   0  0  0  0  0  0
   -4.2551   -1.1067    1.2458 H   0  0  0  0  0  0
   -2.4748    2.0709   -0.0382 H   0  0  0  0  0  0
   -2.9052    1.4163    1.5555 H   0  0  0  0  0  0
   -6.1306    0.2253    0.7802 H   0  0  0  0  0  0
   -5.7328    0.3324   -0.9420 H   0  0  0  0  0  0
    2.6791   -1.8356    1.2726 H   0  0  0  0  0  0
    3.1505   -2.2659   -0.3635 H   0  0  0  0  0  0
   -4.5139    3.7571    0.3652 H   0  0  0  0  0  0
    4.3975   -0.6858   -1.7742 H   0  0  0  0  0  0
    3.0697    0.4520    2.1712 H   0  0  0  0  0  0
    4.5603    2.4314    2.0990 H   0  0  0  0  0  0
   -2.9427   -0.0191   -0.0108 N   0  3  1  0  0  0
   -2.8333    0.0627   -1.0118 H   0  0  0  0  0  0
  1 23  1  0  0  0
  2 25  1  0  0  0
  3 16  2  0  0  0
  4  6  1  0  0  0
  4 10  1  0  0  0
  4 16  1  0  0  0
  5 22  3  0  0  0
  6  7  1  0  0  0
  6  8  1  0  0  0
  6 26  1  0  0  0
  7  9  1  0  0  0
  7 27  1  0  0  0
  7 28  1  0  0  0
  8 29  1  0  0  0
  8 30  1  0  0  0
  8 49  1  0  0  0
  9 11  1  0  0  0
  9 31  1  0  0  0
  9 32  1  0  0  0
 10 11  1  0  0  0
 10 33  1  0  0  0
 10 34  1  0  0  0
 11 35  1  0  0  0
 11 36  1  0  0  0
 12 14  1  0  0  0
 12 37  1  0  0  0
 12 38  1  0  0  0
 12 49  1  0  0  0
 13 15  1  0  0  0
 13 39  1  0  0  0
 13 40  1  0  0  0
 13 49  1  0  0  0
 14 15  1  0  0  0
 14 41  1  0  0  0
 14 42  1  0  0  0
 15 18  2  0  0  0
 16 17  1  0  0  0
 17 19  1  0  0  0
 17 43  1  0  0  0
 17 44  1  0  0  0
 18 22  1  0  0  0
 18 45  1  0  0  0
 19 20  2  0  0  0
 19 21  1  0  0  0
 20 23  1  0  0  0
 20 46  1  0  0  0
 21 24  2  0  0  0
 21 47  1  0  0  0
 23 25  2  0  0  0
 24 25  1  0  0  0
 24 48  1  0  0  0
 49 50  1  0  0  0
M  CHG  1  49   1
M  END
> <LID>
L003136

> <PC_CID>
15123224

> <Names>


> <CAS_Numbers>


$$$$
65964
                    3D
 Structure written by MMmdl.
 54 57  0  0  1  0            999 V2000
    0.6201    1.3602    1.8127 O   0  0  0  0  0  0
    1.6088   -3.7568    1.5836 O   0  5  0  0  0  0
    2.5197   -4.9189    0.0059 O   0  0  0  0  0  0
    0.2668    1.4159   -0.4336 N   0  0  0  0  0  0
    2.2640   -3.8498    0.5505 N   0  3  0  0  0  0
   -2.0212    2.1119    0.4888 C   0  0  2  0  0  0
   -1.1875    1.1356   -0.4091 C   0  0  2  0  0  0
   -2.5188    1.2849    1.7161 C   0  0  0  0  0  0
   -3.8749    3.8038    0.4399 C   0  0  0  0  0  0
   -4.1754    1.7901   -0.8357 C   0  0  0  0  0  0
   -1.4796   -0.2279    0.1748 C   0  0  0  0  0  0
   -2.2119   -0.1427    1.3531 C   0  0  0  0  0  0
   -5.3733    3.5303    0.2704 C   0  0  0  0  0  0
   -5.4495    2.6220   -0.9511 C   0  0  0  0  0  0
   -1.0605   -1.4708   -0.3342 C   0  0  0  0  0  0
   -2.5690   -1.2949    2.0751 C   0  0  0  0  0  0
    0.7967    1.6889   -1.7750 C   0  0  0  0  0  0
    1.0659    1.3637    0.6658 C   0  0  0  0  0  0
   -1.4087   -2.6383    0.3792 C   0  0  0  0  0  0
   -2.1593   -2.5509    1.5755 C   0  0  0  0  0  0
    2.5870    1.1991    0.5003 C   0  0  0  0  0  0
    2.9327   -0.1556   -0.1063 C   0  0  0  0  0  0
    2.4810   -1.3494    0.5001 C   0  0  0  0  0  0
    3.7047   -0.2255   -1.2837 C   0  0  0  0  0  0
    2.7670   -2.6099   -0.0735 C   0  0  0  0  0  0
    4.0054   -1.4744   -1.8575 C   0  0  0  0  0  0
    3.5364   -2.6593   -1.2591 C   0  0  0  0  0  0
   -1.4019    2.9448    0.8258 H   0  0  0  0  0  0
   -1.5774    1.1201   -1.4269 H   0  0  0  0  0  0
   -1.9577    1.5473    2.6133 H   0  0  0  0  0  0
   -3.5772    1.4149    1.9430 H   0  0  0  0  0  0
   -3.6026    4.7495   -0.0299 H   0  0  0  0  0  0
   -3.6067    3.8756    1.4949 H   0  0  0  0  0  0
   -4.3633    0.9449   -0.1742 H   0  0  0  0  0  0
   -3.8636    1.3891   -1.8003 H   0  0  0  0  0  0
   -5.9599    4.4427    0.1578 H   0  0  0  0  0  0
   -5.7503    2.9975    1.1446 H   0  0  0  0  0  0
   -6.3538    2.0129   -0.9726 H   0  0  0  0  0  0
   -5.4239    3.2212   -1.8625 H   0  0  0  0  0  0
   -0.4783   -1.5306   -1.2420 H   0  0  0  0  0  0
   -3.1349   -1.2222    2.9922 H   0  0  0  0  0  0
    0.0504    2.1530   -2.4203 H   0  0  0  0  0  0
    1.1155    0.7615   -2.2515 H   0  0  0  0  0  0
    1.6396    2.3791   -1.7612 H   0  0  0  0  0  0
   -1.0943   -3.6045    0.0126 H   0  0  0  0  0  0
   -2.4159   -3.4515    2.1137 H   0  0  0  0  0  0
    3.0087    2.0172   -0.0828 H   0  0  0  0  0  0
    3.0613    1.2598    1.4808 H   0  0  0  0  0  0
    1.8942   -1.2900    1.4056 H   0  0  0  0  0  0
    4.0620    0.6779   -1.7563 H   0  0  0  0  0  0
    4.5934   -1.5240   -2.7623 H   0  0  0  0  0  0
    3.7742   -3.6063   -1.7212 H   0  0  0  0  0  0
   -3.1600    2.7124   -0.2671 N   0  3  0  0  0  0
   -2.7429    3.1652   -1.0680 H   0  0  0  0  0  0
  1 18  2  0  0  0
  2  5  1  0  0  0
  3  5  2  0  0  0
  4  7  1  0  0  0
  4 17  1  0  0  0
  4 18  1  0  0  0
  5 25  1  0  0  0
  6  7  1  0  0  0
  6  8  1  0  0  0
  6 28  1  0  0  0
  6 53  1  0  0  0
  7 11  1  0  0  0
  7 29  1  0  0  0
  8 12  1  0  0  0
  8 30  1  0  0  0
  8 31  1  0  0  0
  9 13  1  0  0  0
  9 32  1  0  0  0
  9 33  1  0  0  0
  9 53  1  0  0  0
 10 14  1  0  0  0
 10 34  1  0  0  0
 10 35  1  0  0  0
 10 53  1  0  0  0
 11 12  1  0  0  0
 11 15  2  0  0  0
 12 16  2  0  0  0
 13 14  1  0  0  0
 13 36  1  0  0  0
 13 37  1  0  0  0
 14 38  1  0  0  0
 14 39  1  0  0  0
 15 19  1  0  0  0
 15 40  1  0  0  0
 16 20  1  0  0  0
 16 41  1  0  0  0
 17 42  1  0  0  0
 17 43  1  0  0  0
 17 44  1  0  0  0
 18 21  1  0  0  0
 19 20  2  0  0  0
 19 45  1  0  0  0
 20 46  1  0  0  0
 21 22  1  0  0  0
 21 47  1  0  0  0
 21 48  1  0  0  0
 22 23  2  0  0  0
 22 24  1  0  0  0
 23 25  1  0  0  0
 23 49  1  0  0  0
 24 26  2  0  0  0
 24 50  1  0  0  0
 25 27  2  0  0  0
 26 27  1  0  0  0
 26 51  1  0  0  0
 27 52  1  0  0  0
 53 54  1  0  0  0
M  CHG  3   2  -1   5   1  53   1
M  END
> <LID>
L004285

> <PC_CID>
65964

> <Names>
niravoline

> <CAS_Numbers>
130610-93-4

$$$$
18377112
                    3D
 Structure written by MMmdl.
 43 45  0  0  1  0            999 V2000
    6.5087   -2.4019   -0.6010 Br  0  0  0  0  0  0
    1.7581    1.8001    0.7709 S   0  0  0  0  0  0
   -5.2869   -2.3705   -0.3137 O   0  0  0  0  0  0
   -2.3176    1.5979   -0.2993 C   0  0  0  0  0  0
   -0.9798    2.0964    0.3340 C   0  0  1  0  0  0
    0.1975    1.1308    0.1049 C   0  0  2  0  0  0
   -2.5467    0.0998   -0.0180 C   0  0  0  0  0  0
   -0.1109   -0.2263    0.7479 C   0  0  0  0  0  0
   -1.5081   -0.7451    0.4599 C   0  0  0  0  0  0
   -3.4688    2.4357    0.3129 C   0  0  0  0  0  0
   -2.3185    1.7948   -1.8350 C   0  0  0  0  0  0
   -3.8138   -0.4774   -0.2825 C   0  0  0  0  0  0
   -1.7583   -2.1145    0.6909 C   0  0  0  0  0  0
   -4.0553   -1.8446   -0.0534 C   0  0  0  0  0  0
   -3.0266   -2.6651    0.4391 C   0  0  0  0  0  0
    3.0427    0.6509    0.3802 C   0  0  0  0  0  0
    4.0434    0.3878    1.3368 C   0  0  0  0  0  0
    3.0833    0.0088   -0.8756 C   0  0  0  0  0  0
    5.0766   -0.5238    1.0446 C   0  0  0  0  0  0
    4.1174   -0.9026   -1.1661 C   0  0  0  0  0  0
    5.1130   -1.1702   -0.2063 C   0  0  0  0  0  0
   -1.1224    2.1540    1.4148 H   0  0  0  0  0  0
    0.3272    0.9952   -0.9680 H   0  0  0  0  0  0
   -0.0109   -0.1518    1.8316 H   0  0  0  0  0  0
    0.6192   -0.9674    0.4206 H   0  0  0  0  0  0
   -4.4360    2.2121   -0.1354 H   0  0  0  0  0  0
   -3.5587    2.2604    1.3857 H   0  0  0  0  0  0
   -3.3140    3.5050    0.1698 H   0  0  0  0  0  0
   -3.2589    1.4626   -2.2762 H   0  0  0  0  0  0
   -2.1975    2.8394   -2.1212 H   0  0  0  0  0  0
   -1.5247    1.2245   -2.3174 H   0  0  0  0  0  0
    0.2092    3.7603    0.3690 H   0  0  0  0  0  0
   -0.4995    3.4871   -1.0942 H   0  0  0  0  0  0
   -4.6201    0.1213   -0.6772 H   0  0  0  0  0  0
   -0.9700   -2.7528    1.0631 H   0  0  0  0  0  0
   -3.2020   -3.7157    0.6189 H   0  0  0  0  0  0
    4.0194    0.8812    2.2975 H   0  0  0  0  0  0
    2.3329    0.2101   -1.6245 H   0  0  0  0  0  0
   -5.3445   -3.2951   -0.1275 H   0  0  0  0  0  0
    5.8412   -0.7268    1.7801 H   0  0  0  0  0  0
    4.1480   -1.3951   -2.1269 H   0  0  0  0  0  0
   -0.6407    3.4705   -0.0944 N   0  3  0  0  0  0
   -1.3923    4.0983    0.1520 H   0  0  0  0  0  0
  1 21  1  0  0  0
  2  6  1  0  0  0
  2 16  1  0  0  0
  3 14  1  0  0  0
  3 39  1  0  0  0
  4  5  1  0  0  0
  4  7  1  0  0  0
  4 10  1  0  0  0
  4 11  1  0  0  0
  5  6  1  0  0  0
  5 22  1  0  0  0
  5 42  1  0  0  0
  6  8  1  0  0  0
  6 23  1  0  0  0
  7  9  2  0  0  0
  7 12  1  0  0  0
  8  9  1  0  0  0
  8 24  1  0  0  0
  8 25  1  0  0  0
  9 13  1  0  0  0
 10 26  1  0  0  0
 10 27  1  0  0  0
 10 28  1  0  0  0
 11 29  1  0  0  0
 11 30  1  0  0  0
 11 31  1  0  0  0
 12 14  2  0  0  0
 12 34  1  0  0  0
 13 15  2  0  0  0
 13 35  1  0  0  0
 14 15  1  0  0  0
 15 36  1  0  0  0
 16 17  2  0  0  0
 16 18  1  0  0  0
 17 19  1  0  0  0
 17 37  1  0  0  0
 18 20  2  0  0  0
 18 38  1  0  0  0
 19 21  2  0  0  0
 19 40  1  0  0  0
 20 21  1  0  0  0
 20 41  1  0  0  0
 32 42  1  0  0  0
 33 42  1  0  0  0
 42 43  1  0  0  0
M  CHG  1  42   1
M  END
> <LID>
L019836

> <PC_CID>
18377112

> <Names>


> <CAS_Numbers>


$$$$
14536608
                    3D
 Structure written by MMmdl.
 64 67  0  0  1  0            999 V2000
   -3.0910   -1.0752   -2.0107 S   0  0  0  0  0  0
    2.9158   -3.7139   -0.2698 O   0  0  0  0  0  0
   -1.6110    0.1739    0.2836 N   0  0  0  0  0  0
    3.2440   -1.5848    0.4386 N   0  0  0  0  0  0
   -1.6882    5.1203   -0.4436 C   0  0  0  0  0  0
    0.2898    3.9027   -1.0049 C   0  0  0  0  0  0
   -1.6844    2.6511   -0.1165 C   0  0  0  0  0  0
   -0.8675    5.9368   -1.4501 C   0  0  0  0  0  0
    0.5426    5.3687   -1.3405 C   0  0  0  0  0  0
   -0.9081    1.4571    0.4909 C   0  0  1  0  0  0
   -0.4859    1.7029    1.9543 C   0  0  0  0  0  0
   -0.9048   -0.8086   -0.3334 C   0  0  0  0  0  0
   -2.9485    0.0667    0.5116 C   0  0  0  0  0  0
   -1.4571   -1.4656   -1.4593 C   0  0  0  0  0  0
   -3.7863   -0.4527   -0.5087 C   0  0  0  0  0  0
    0.3905   -1.1738    0.1037 C   0  0  0  0  0  0
   -3.5423    0.4676    1.7319 C   0  0  0  0  0  0
    1.1376   -2.1614   -0.5802 C   0  0  0  0  0  0
   -0.7211   -2.4510   -2.1431 C   0  0  0  0  0  0
   -5.1826   -0.5129   -0.3323 C   0  0  0  0  0  0
    0.5686   -2.8003   -1.7030 C   0  0  0  0  0  0
   -4.9373    0.3967    1.9112 C   0  0  0  0  0  0
   -5.7597   -0.0828    0.8759 C   0  0  0  0  0  0
    5.6357   -1.6328   -0.2078 C   0  0  0  0  0  0
    7.0968   -1.8372    0.2421 C   0  0  0  0  0  0
    2.5046   -2.5652   -0.1053 C   0  0  0  0  0  0
    4.6070   -1.7396    0.9332 C   0  0  0  0  0  0
    8.0241   -1.9826   -0.9743 C   0  0  0  0  0  0
    7.5939   -0.7084    1.1610 C   0  0  0  0  0  0
   -2.6686    4.8782   -0.8572 H   0  0  0  0  0  0
   -1.8495    5.6836    0.4761 H   0  0  0  0  0  0
    1.1500    3.4333   -0.5265 H   0  0  0  0  0  0
    0.0700    3.3517   -1.9211 H   0  0  0  0  0  0
   -2.5976    2.8237    0.4546 H   0  0  0  0  0  0
   -1.9949    2.4212   -1.1374 H   0  0  0  0  0  0
   -0.9062    7.0091   -1.2554 H   0  0  0  0  0  0
   -1.2507    5.7684   -2.4576 H   0  0  0  0  0  0
    1.1270    5.5016   -2.2516 H   0  0  0  0  0  0
    1.0772    5.8527   -0.5218 H   0  0  0  0  0  0
    0.0198    1.3899   -0.0783 H   0  0  0  0  0  0
   -1.2910    2.1177    2.5578 H   0  0  0  0  0  0
   -0.1363    0.7905    2.4369 H   0  0  0  0  0  0
    0.3319    2.4224    1.9991 H   0  0  0  0  0  0
    0.8122   -0.6940    0.9738 H   0  0  0  0  0  0
   -2.9456    0.8211    2.5547 H   0  0  0  0  0  0
   -1.1488   -2.9499   -3.0004 H   0  0  0  0  0  0
   -5.8121   -0.9046   -1.1179 H   0  0  0  0  0  0
    1.1179   -3.5647   -2.2340 H   0  0  0  0  0  0
   -5.3769    0.7092    2.8471 H   0  0  0  0  0  0
    5.3954   -2.3845   -0.9612 H   0  0  0  0  0  0
    5.5360   -0.6671   -0.7052 H   0  0  0  0  0  0
    7.1504   -2.7724    0.8012 H   0  0  0  0  0  0
   -6.8296   -0.1363    1.0143 H   0  0  0  0  0  0
    4.7765   -0.9589    1.6741 H   0  0  0  0  0  0
    4.7111   -2.6922    1.4555 H   0  0  0  0  0  0
    2.8344   -0.6651    0.5065 H   0  0  0  0  0  0
    9.0530   -2.1694   -0.6653 H   0  0  0  0  0  0
    7.7176   -2.8160   -1.6071 H   0  0  0  0  0  0
    8.0193   -1.0803   -1.5867 H   0  0  0  0  0  0
    8.6364   -0.8630    1.4407 H   0  0  0  0  0  0
    7.5241    0.2627    0.6699 H   0  0  0  0  0  0
    7.0203   -0.6578    2.0860 H   0  0  0  0  0  0
   -0.8969    3.9078   -0.1216 N   0  3  0  0  0  0
   -0.5538    4.0475    0.8182 H   0  0  0  0  0  0
  1 14  1  0  0  0
  1 15  1  0  0  0
  2 26  2  0  0  0
  3 10  1  0  0  0
  3 12  1  0  0  0
  3 13  1  0  0  0
  4 26  1  0  0  0
  4 27  1  0  0  0
  4 56  1  0  0  0
  5  8  1  0  0  0
  5 30  1  0  0  0
  5 31  1  0  0  0
  5 63  1  0  0  0
  6  9  1  0  0  0
  6 32  1  0  0  0
  6 33  1  0  0  0
  6 63  1  0  0  0
  7 10  1  0  0  0
  7 34  1  0  0  0
  7 35  1  0  0  0
  7 63  1  0  0  0
  8  9  1  0  0  0
  8 36  1  0  0  0
  8 37  1  0  0  0
  9 38  1  0  0  0
  9 39  1  0  0  0
 10 11  1  0  0  0
 10 40  1  0  0  0
 11 41  1  0  0  0
 11 42  1  0  0  0
 11 43  1  0  0  0
 12 14  2  0  0  0
 12 16  1  0  0  0
 13 15  1  0  0  0
 13 17  2  0  0  0
 14 19  1  0  0  0
 15 20  2  0  0  0
 16 18  2  0  0  0
 16 44  1  0  0  0
 17 22  1  0  0  0
 17 45  1  0  0  0
 18 21  1  0  0  0
 18 26  1  0  0  0
 19 21  2  0  0  0
 19 46  1  0  0  0
 20 23  1  0  0  0
 20 47  1  0  0  0
 21 48  1  0  0  0
 22 23  2  0  0  0
 22 49  1  0  0  0
 23 53  1  0  0  0
 24 25  1  0  0  0
 24 27  1  0  0  0
 24 50  1  0  0  0
 24 51  1  0  0  0
 25 28  1  0  0  0
 25 29  1  0  0  0
 25 52  1  0  0  0
 27 54  1  0  0  0
 27 55  1  0  0  0
 28 57  1  0  0  0
 28 58  1  0  0  0
 28 59  1  0  0  0
 29 60  1  0  0  0
 29 61  1  0  0  0
 29 62  1  0  0  0
 63 64  1  0  0  0
M  CHG  1  63   1
M  END
> <LID>
L003534

> <PC_CID>
14536608

> <Names>


> <CAS_Numbers>


$$$$
18939033
                    3D
 Structure written by MMmdl.
 57 60  0  0  1  0            999 V2000
    5.9737   -0.1477   -0.2940 Cl  0  0  0  0  0  0
    5.6694   -0.8370   -3.3934 Cl  0  0  0  0  0  0
   -3.9049    0.6965   -4.6436 O   0  0  0  0  0  0
   -0.8826   -2.4098   -0.4300 O   0  0  0  0  0  0
    0.5849   -0.3312    4.6617 O   0  0  0  0  0  0
   -0.3617   -0.4032    0.5019 N   0  0  0  0  0  0
    2.1251    0.2988    3.1437 N   0  0  0  0  0  0
   -0.0863   -0.1632    3.4422 N   0  0  0  0  0  0
   -3.6939    0.6347   -2.2329 C   0  0  0  0  0  0
   -2.5890    2.6990   -2.6805 C   0  0  0  0  0  0
   -4.3723    1.2917   -3.4491 C   0  0  1  0  0  0
   -3.9322    2.7554   -3.4003 C   0  0  0  0  0  0
   -1.4646    1.0749   -1.1742 C   0  0  0  0  0  0
   -1.6487    0.2164    0.1021 C   0  0  2  0  0  0
   -2.3690    0.9180    1.2583 C   0  0  0  0  0  0
    0.6118    0.4935    1.1577 C   0  0  0  0  0  0
   -0.0811   -1.6949    0.1732 C   0  0  0  0  0  0
   -3.1523    0.1430    2.1420 C   0  0  0  0  0  0
   -2.2683    2.3130    1.4759 C   0  0  0  0  0  0
    1.2758   -2.3280    0.5351 C   0  0  0  0  0  0
    0.8782    0.2030    2.6048 C   0  0  0  0  0  0
   -3.8246    0.7469    3.2216 C   0  0  0  0  0  0
   -2.9411    2.9168    2.5555 C   0  0  0  0  0  0
    2.3731   -1.9481   -0.4502 C   0  0  0  0  0  0
   -3.7199    2.1348    3.4286 C   0  0  0  0  0  0
    3.5406   -1.3016    0.0088 C   0  0  0  0  0  0
    2.2495   -2.2612   -1.8214 C   0  0  0  0  0  0
    1.8809   -0.0399    4.4059 C   0  0  0  0  0  0
    4.5655   -0.9504   -0.8917 C   0  0  0  0  0  0
    3.2727   -1.9129   -2.7236 C   0  0  0  0  0  0
    4.4307   -1.2556   -2.2639 C   0  0  0  0  0  0
   -4.4265    0.3854   -1.4644 H   0  0  0  0  0  0
   -3.1900   -0.2930   -2.5110 H   0  0  0  0  0  0
   -2.3184    3.6499   -2.2206 H   0  0  0  0  0  0
   -1.8040    2.4282   -3.3890 H   0  0  0  0  0  0
   -5.4584    1.1984   -3.4127 H   0  0  0  0  0  0
   -4.6402    3.3290   -2.8003 H   0  0  0  0  0  0
   -3.8733    3.2276   -4.3820 H   0  0  0  0  0  0
   -0.9967    0.4832   -1.9630 H   0  0  0  0  0  0
   -0.7802    1.9003   -0.9764 H   0  0  0  0  0  0
   -2.3535   -0.5680   -0.1753 H   0  0  0  0  0  0
   -4.2295   -0.1904   -4.6916 H   0  0  0  0  0  0
    1.5510    0.4718    0.6075 H   0  0  0  0  0  0
    0.2966    1.5326    1.0870 H   0  0  0  0  0  0
   -3.2345   -0.9247    1.9990 H   0  0  0  0  0  0
   -1.6710    2.9361    0.8281 H   0  0  0  0  0  0
    1.5661   -2.0947    1.5575 H   0  0  0  0  0  0
    1.1702   -3.4134    0.5106 H   0  0  0  0  0  0
   -4.4180    0.1441    3.8933 H   0  0  0  0  0  0
   -2.8567    3.9815    2.7167 H   0  0  0  0  0  0
   -4.2336    2.5983    4.2580 H   0  0  0  0  0  0
    3.6529   -1.0667    1.0573 H   0  0  0  0  0  0
    1.3690   -2.7696   -2.1871 H   0  0  0  0  0  0
    2.6316   -0.0884    5.1810 H   0  0  0  0  0  0
    3.1686   -2.1526   -3.7716 H   0  0  0  0  0  0
   -2.7455    1.6300   -1.6758 N   0  3  2  0  0  0
   -3.2141    2.0576   -0.8890 H   0  0  0  0  0  0
  1 29  1  0  0  0
  2 31  1  0  0  0
  3 11  1  0  0  0
  3 42  1  0  0  0
  4 17  2  0  0  0
  5  8  1  0  0  0
  5 28  1  0  0  0
  6 14  1  0  0  0
  6 16  1  0  0  0
  6 17  1  0  0  0
  7 21  1  0  0  0
  7 28  2  0  0  0
  8 21  2  0  0  0
  9 11  1  0  0  0
  9 32  1  0  0  0
  9 33  1  0  0  0
  9 56  1  0  0  0
 10 12  1  0  0  0
 10 34  1  0  0  0
 10 35  1  0  0  0
 10 56  1  0  0  0
 11 12  1  0  0  0
 11 36  1  0  0  0
 12 37  1  0  0  0
 12 38  1  0  0  0
 13 14  1  0  0  0
 13 39  1  0  0  0
 13 40  1  0  0  0
 13 56  1  0  0  0
 14 15  1  0  0  0
 14 41  1  0  0  0
 15 18  2  0  0  0
 15 19  1  0  0  0
 16 21  1  0  0  0
 16 43  1  0  0  0
 16 44  1  0  0  0
 17 20  1  0  0  0
 18 22  1  0  0  0
 18 45  1  0  0  0
 19 23  2  0  0  0
 19 46  1  0  0  0
 20 24  1  0  0  0
 20 47  1  0  0  0
 20 48  1  0  0  0
 22 25  2  0  0  0
 22 49  1  0  0  0
 23 25  1  0  0  0
 23 50  1  0  0  0
 24 26  2  0  0  0
 24 27  1  0  0  0
 25 51  1  0  0  0
 26 29  1  0  0  0
 26 52  1  0  0  0
 27 30  2  0  0  0
 27 53  1  0  0  0
 28 54  1  0  0  0
 29 31  2  0  0  0
 30 31  1  0  0  0
 30 55  1  0  0  0
 56 57  1  0  0  0
M  CHG  1  56   1
M  END
> <LID>
L014577

> <PC_CID>
18939033

> <Names>


> <CAS_Numbers>


$$$$
44209889
                    3D
 Structure written by MMmdl.
 58 61  0  0  1  0            999 V2000
    6.4609    1.3723   -2.1205 O   0  0  0  0  0  0
    0.1258   -0.0973    0.8075 O   0  0  0  0  0  0
   -6.6372   -0.1967    1.8240 O   0  0  0  0  0  0
    1.7340   -1.3860   -0.1617 N   0  0  0  0  0  0
    2.9216   -0.5770    0.2181 C   0  0  1  0  0  0
    2.6888    0.9636    0.2734 C   0  0  0  0  0  0
    3.4341   -1.1964    1.5441 C   0  0  0  0  0  0
    4.2284    2.0016   -1.4175 C   0  0  0  0  0  0
    3.8469   -2.6646    1.3259 C   0  0  0  0  0  0
    5.1330    1.5535    0.7302 C   0  0  0  0  0  0
    2.1557   -2.7362   -0.5781 C   0  0  0  0  0  0
    5.7240    2.3751   -1.4496 C   0  0  1  0  0  0
    2.7294   -3.4771    0.6456 C   0  0  0  0  0  0
    6.1534    2.4374    0.0212 C   0  0  0  0  0  0
    0.4416   -1.0966    0.1601 C   0  0  0  0  0  0
   -0.6752   -2.0495   -0.3128 C   0  0  0  0  0  0
   -2.0710   -1.5082   -0.0376 C   0  0  0  0  0  0
   -4.0036   -0.1741   -0.7355 C   0  0  0  0  0  0
   -2.7106   -0.6807   -0.9828 C   0  0  0  0  0  0
   -4.6541    0.7180   -1.7811 C   0  0  0  0  0  0
   -4.6738   -0.5056    0.4710 C   0  0  0  0  0  0
   -5.7390    1.6220   -1.1838 C   0  0  0  0  0  0
   -2.7345   -1.8338    1.1622 C   0  0  0  0  0  0
   -6.7334    0.8264   -0.3280 C   0  0  0  0  0  0
   -4.0258   -1.3345    1.4148 C   0  0  0  0  0  0
   -6.0401    0.0124    0.7686 C   0  0  0  0  0  0
    3.6784   -0.7406   -0.5503 H   0  0  0  0  0  0
    2.2948    1.2384    1.2525 H   0  0  0  0  0  0
    1.9328    1.2602   -0.4553 H   0  0  0  0  0  0
    2.6477   -1.1477    2.2990 H   0  0  0  0  0  0
    4.2725   -0.6512    1.9690 H   0  0  0  0  0  0
    3.6097    2.7882   -1.8506 H   0  0  0  0  0  0
    4.0355    1.0881   -1.9827 H   0  0  0  0  0  0
    4.1220   -3.1255    2.2750 H   0  0  0  0  0  0
    4.7400   -2.6932    0.7004 H   0  0  0  0  0  0
    5.4419    0.5181    0.5919 H   0  0  0  0  0  0
    5.0540    1.7635    1.7973 H   0  0  0  0  0  0
    2.9209   -2.6571   -1.3517 H   0  0  0  0  0  0
    1.3693   -3.3324   -1.0373 H   0  0  0  0  0  0
    5.8939    3.3299   -1.9488 H   0  0  0  0  0  0
    3.1061   -4.4570    0.3510 H   0  0  0  0  0  0
    1.9283   -3.6591    1.3633 H   0  0  0  0  0  0
    6.0605    3.4614    0.3860 H   0  0  0  0  0  0
    7.1837    2.1209    0.1898 H   0  0  0  0  0  0
   -0.5780   -2.2239   -1.3851 H   0  0  0  0  0  0
   -0.5670   -3.0133    0.1863 H   0  0  0  0  0  0
    6.2325    1.3857   -3.0380 H   0  0  0  0  0  0
   -2.2036   -0.4293   -1.9031 H   0  0  0  0  0  0
   -3.8945    1.3277   -2.2720 H   0  0  0  0  0  0
   -5.0885    0.0771   -2.5492 H   0  0  0  0  0  0
   -5.2707    2.3891   -0.5651 H   0  0  0  0  0  0
   -6.2649    2.1496   -1.9798 H   0  0  0  0  0  0
   -2.2536   -2.4653    1.8949 H   0  0  0  0  0  0
   -7.2988    0.1391   -0.9576 H   0  0  0  0  0  0
   -7.4551    1.5028    0.1307 H   0  0  0  0  0  0
   -4.5141   -1.5966    2.3425 H   0  0  0  0  0  0
    3.8757    1.8234    0.0089 N   0  3  2  0  0  0
    3.6034    2.7472    0.3138 H   0  0  0  0  0  0
  1 12  1  0  0  0
  1 47  1  0  0  0
  2 15  2  0  0  0
  3 26  2  0  0  0
  4  5  1  0  0  0
  4 11  1  0  0  0
  4 15  1  0  0  0
  5  6  1  0  0  0
  5  7  1  0  0  0
  5 27  1  0  0  0
  6 28  1  0  0  0
  6 29  1  0  0  0
  6 57  1  0  0  0
  7  9  1  0  0  0
  7 30  1  0  0  0
  7 31  1  0  0  0
  8 12  1  0  0  0
  8 32  1  0  0  0
  8 33  1  0  0  0
  8 57  1  0  0  0
  9 13  1  0  0  0
  9 34  1  0  0  0
  9 35  1  0  0  0
 10 14  1  0  0  0
 10 36  1  0  0  0
 10 37  1  0  0  0
 10 57  1  0  0  0
 11 13  1  0  0  0
 11 38  1  0  0  0
 11 39  1  0  0  0
 12 14  1  0  0  0
 12 40  1  0  0  0
 13 41  1  0  0  0
 13 42  1  0  0  0
 14 43  1  0  0  0
 14 44  1  0  0  0
 15 16  1  0  0  0
 16 17  1  0  0  0
 16 45  1  0  0  0
 16 46  1  0  0  0
 17 19  2  0  0  0
 17 23  1  0  0  0
 18 19  1  0  0  0
 18 20  1  0  0  0
 18 21  2  0  0  0
 19 48  1  0  0  0
 20 22  1  0  0  0
 20 49  1  0  0  0
 20 50  1  0  0  0
 21 25  1  0  0  0
 21 26  1  0  0  0
 22 24  1  0  0  0
 22 51  1  0  0  0
 22 52  1  0  0  0
 23 25  2  0  0  0
 23 53  1  0  0  0
 24 26  1  0  0  0
 24 54  1  0  0  0
 24 55  1  0  0  0
 25 56  1  0  0  0
 57 58  1  0  0  0
M  CHG  1  57   1
M  END
> <LID>
L005489

> <PC_CID>
44209889

> <Names>


> <CAS_Numbers>


$$$$
18939035
                    3D
 Structure written by MMmdl.
 53 55  0  0  1  0            999 V2000
   -4.4563    1.6836    2.8339 Cl  0  0  0  0  0  0
   -6.3166    1.8709    0.2498 Cl  0  0  0  0  0  0
    5.1582    0.4737    2.3954 O   0  0  0  0  0  0
   -0.0610   -1.5498    1.9225 O   0  0  0  0  0  0
    0.2480   -1.0418   -0.2722 N   0  0  0  0  0  0
    0.2246   -3.4924   -2.7238 N   0  0  0  0  0  0
    4.6068   -1.1196    0.6596 C   0  0  0  0  0  0
    4.4596    0.9251   -0.5729 C   0  0  0  0  0  0
    5.6514   -0.1345    1.2179 C   0  0  1  0  0  0
    5.8158    0.9259    0.1246 C   0  0  0  0  0  0
    2.6651   -0.8629   -0.9429 C   0  0  0  0  0  0
    1.5175   -0.3162   -0.0378 C   0  0  1  0  0  0
    1.2700    1.1924   -0.0858 C   0  0  0  0  0  0
   -0.2110   -1.1267   -1.6662 C   0  0  0  0  0  0
   -0.4603   -1.5761    0.7578 C   0  0  0  0  0  0
    1.3379    1.9269   -1.2933 C   0  0  0  0  0  0
    0.9334    1.8681    1.1083 C   0  0  0  0  0  0
   -1.8304   -2.2275    0.4994 C   0  0  0  0  0  0
    1.0886    3.3128   -1.2996 C   0  0  0  0  0  0
    0.6824    3.2534    1.1013 C   0  0  0  0  0  0
   -2.9491   -1.1940    0.4479 C   0  0  0  0  0  0
    0.7617    3.9771   -0.1028 C   0  0  0  0  0  0
    0.0315   -2.4514   -2.2596 C   0  0  0  0  0  0
   -3.1794   -0.3249    1.5377 C   0  0  0  0  0  0
   -3.7841   -1.1133   -0.6868 C   0  0  0  0  0  0
   -4.2151    0.6289    1.4869 C   0  0  0  0  0  0
   -4.8213   -0.1626   -0.7396 C   0  0  0  0  0  0
   -5.0386    0.7118    0.3430 C   0  0  0  0  0  0
    5.0731   -2.0668    0.3867 H   0  0  0  0  0  0
    3.8362   -1.3469    1.3963 H   0  0  0  0  0  0
    4.4990    1.3393   -1.5807 H   0  0  0  0  0  0
    3.7834    1.5306    0.0254 H   0  0  0  0  0  0
    6.5980   -0.6256    1.4467 H   0  0  0  0  0  0
    6.1001    1.9070    0.5078 H   0  0  0  0  0  0
    6.5873    0.6103   -0.5793 H   0  0  0  0  0  0
    2.5169   -0.5796   -1.9839 H   0  0  0  0  0  0
    2.6255   -1.9533   -0.9336 H   0  0  0  0  0  0
    1.8565   -0.5086    0.9787 H   0  0  0  0  0  0
    5.1110   -0.1767    3.0802 H   0  0  0  0  0  0
   -1.2692   -0.8915   -1.7588 H   0  0  0  0  0  0
    0.2863   -0.4010   -2.3049 H   0  0  0  0  0  0
    1.5868    1.4449   -2.2257 H   0  0  0  0  0  0
    0.8628    1.3237    2.0389 H   0  0  0  0  0  0
   -1.8154   -2.8343   -0.4052 H   0  0  0  0  0  0
   -2.0489   -2.9206    1.3129 H   0  0  0  0  0  0
    1.1466    3.8674   -2.2247 H   0  0  0  0  0  0
    0.4269    3.7603    2.0203 H   0  0  0  0  0  0
    0.5690    5.0399   -0.1089 H   0  0  0  0  0  0
   -2.5578   -0.3839    2.4194 H   0  0  0  0  0  0
   -3.6318   -1.7786   -1.5243 H   0  0  0  0  0  0
   -5.4524   -0.1051   -1.6143 H   0  0  0  0  0  0
    4.0612   -0.4966   -0.5695 N   0  3  2  0  0  0
    4.6268   -0.8970   -1.3045 H   0  0  0  0  0  0
  1 26  1  0  0  0
  2 28  1  0  0  0
  3  9  1  0  0  0
  3 39  1  0  0  0
  4 15  2  0  0  0
  5 12  1  0  0  0
  5 14  1  0  0  0
  5 15  1  0  0  0
  6 23  3  0  0  0
  7  9  1  0  0  0
  7 29  1  0  0  0
  7 30  1  0  0  0
  7 52  1  0  0  0
  8 10  1  0  0  0
  8 31  1  0  0  0
  8 32  1  0  0  0
  8 52  1  0  0  0
  9 10  1  0  0  0
  9 33  1  0  0  0
 10 34  1  0  0  0
 10 35  1  0  0  0
 11 12  1  0  0  0
 11 36  1  0  0  0
 11 37  1  0  0  0
 11 52  1  0  0  0
 12 13  1  0  0  0
 12 38  1  0  0  0
 13 16  2  0  0  0
 13 17  1  0  0  0
 14 23  1  0  0  0
 14 40  1  0  0  0
 14 41  1  0  0  0
 15 18  1  0  0  0
 16 19  1  0  0  0
 16 42  1  0  0  0
 17 20  2  0  0  0
 17 43  1  0  0  0
 18 21  1  0  0  0
 18 44  1  0  0  0
 18 45  1  0  0  0
 19 22  2  0  0  0
 19 46  1  0  0  0
 20 22  1  0  0  0
 20 47  1  0  0  0
 21 24  2  0  0  0
 21 25  1  0  0  0
 22 48  1  0  0  0
 24 26  1  0  0  0
 24 49  1  0  0  0
 25 27  2  0  0  0
 25 50  1  0  0  0
 26 28  2  0  0  0
 27 28  1  0  0  0
 27 51  1  0  0  0
 52 53  1  0  0  0
M  CHG  1  52   1
M  END
> <LID>
L014573

> <PC_CID>
18939035

> <Names>


> <CAS_Numbers>


$$$$
18939034
                    3D
 Structure written by MMmdl.
 54 56  0  0  1  0            999 V2000
    2.8653   -1.9084    3.3469 Cl  0  0  0  0  0  0
    2.9461   -4.8973    2.2343 Cl  0  0  0  0  0  0
   -3.0683    4.3592    1.9157 O   0  0  0  0  0  0
    1.8462    1.8310   -0.6738 O   0  0  0  0  0  0
    0.0627    0.0167   -4.2989 O   0  0  0  0  0  0
    0.1460    0.4845   -1.3636 N   0  0  0  0  0  0
   -3.0475    3.5570   -0.3724 C   0  0  0  0  0  0
   -3.9951    1.6266    0.6903 C   0  0  0  0  0  0
   -3.9007    4.0314    0.8206 C   0  0  1  0  0  0
   -4.7836    2.8340    1.1885 C   0  0  0  0  0  0
   -2.3094    1.2377   -1.1698 C   0  0  0  0  0  0
   -0.8548    1.2890   -0.6028 C   0  0  1  0  0  0
   -0.7762    0.9658    0.8910 C   0  0  0  0  0  0
   -0.3079   -0.7326   -2.0758 C   0  0  0  0  0  0
    1.4673    0.7847   -1.2043 C   0  0  0  0  0  0
   -0.9354   -0.3583    1.3601 C   0  0  0  0  0  0
   -0.5122    1.9968    1.8198 C   0  0  0  0  0  0
    2.5634   -0.2097   -1.6268 C   0  0  0  0  0  0
   -0.8344   -0.6445    2.7349 C   0  0  0  0  0  0
   -0.4156    1.7110    3.1950 C   0  0  0  0  0  0
   -0.7862   -0.4305   -3.4979 C   0  0  0  0  0  0
    2.6795   -1.3726   -0.6442 C   0  0  0  0  0  0
   -0.5755    0.3899    3.6533 C   0  0  0  0  0  0
    2.7451   -1.1462    0.7501 C   0  0  0  0  0  0
    2.7243   -2.6970   -1.1284 C   0  0  0  0  0  0
    2.8211   -2.2272    1.6494 C   0  0  0  0  0  0
    2.8098   -3.7796   -0.2322 C   0  0  0  0  0  0
    2.8536   -3.5498    1.1568 C   0  0  0  0  0  0
   -3.3296    4.0764   -1.2886 H   0  0  0  0  0  0
   -1.9955    3.7709   -0.1976 H   0  0  0  0  0  0
   -4.6341    0.7657    0.4918 H   0  0  0  0  0  0
   -3.2704    1.3385    1.4478 H   0  0  0  0  0  0
   -4.5026    4.9051    0.5678 H   0  0  0  0  0  0
   -5.0241    2.7780    2.2512 H   0  0  0  0  0  0
   -5.7259    2.8981    0.6425 H   0  0  0  0  0  0
   -2.7083    0.2241   -1.1469 H   0  0  0  0  0  0
   -2.2802    1.5381   -2.2168 H   0  0  0  0  0  0
   -0.5435    2.3249   -0.7287 H   0  0  0  0  0  0
   -2.5672    5.1313    1.6993 H   0  0  0  0  0  0
    0.4430   -1.5139   -2.1442 H   0  0  0  0  0  0
   -1.1151   -1.2141   -1.5278 H   0  0  0  0  0  0
   -1.1324   -1.1664    0.6737 H   0  0  0  0  0  0
   -0.3763    3.0136    1.4824 H   0  0  0  0  0  0
    2.3927   -0.5587   -2.6457 H   0  0  0  0  0  0
    3.5231    0.3079   -1.6499 H   0  0  0  0  0  0
   -0.9529   -1.6595    3.0849 H   0  0  0  0  0  0
   -0.2139    2.5057    3.8981 H   0  0  0  0  0  0
   -0.4967    0.1697    4.7077 H   0  0  0  0  0  0
    2.7221   -0.1393    1.1411 H   0  0  0  0  0  0
    2.6833   -2.8887   -2.1909 H   0  0  0  0  0  0
    2.8368   -4.7900   -0.6130 H   0  0  0  0  0  0
   -1.9915   -0.6432   -3.7532 O   0  5  0  0  0  0
   -3.3378    2.1130   -0.5384 N   0  3  2  0  0  0
   -4.0952    2.1029   -1.2067 H   0  0  0  0  0  0
  1 26  1  0  0  0
  2 28  1  0  0  0
  3  9  1  0  0  0
  3 39  1  0  0  0
  4 15  2  0  0  0
  5 21  2  0  0  0
  6 12  1  0  0  0
  6 14  1  0  0  0
  6 15  1  0  0  0
  7  9  1  0  0  0
  7 29  1  0  0  0
  7 30  1  0  0  0
  7 53  1  0  0  0
  8 10  1  0  0  0
  8 31  1  0  0  0
  8 32  1  0  0  0
  8 53  1  0  0  0
  9 10  1  0  0  0
  9 33  1  0  0  0
 10 34  1  0  0  0
 10 35  1  0  0  0
 11 12  1  0  0  0
 11 36  1  0  0  0
 11 37  1  0  0  0
 11 53  1  0  0  0
 12 13  1  0  0  0
 12 38  1  0  0  0
 13 16  2  0  0  0
 13 17  1  0  0  0
 14 21  1  0  0  0
 14 40  1  0  0  0
 14 41  1  0  0  0
 15 18  1  0  0  0
 16 19  1  0  0  0
 16 42  1  0  0  0
 17 20  2  0  0  0
 17 43  1  0  0  0
 18 22  1  0  0  0
 18 44  1  0  0  0
 18 45  1  0  0  0
 19 23  2  0  0  0
 19 46  1  0  0  0
 20 23  1  0  0  0
 20 47  1  0  0  0
 21 52  1  0  0  0
 22 24  2  0  0  0
 22 25  1  0  0  0
 23 48  1  0  0  0
 24 26  1  0  0  0
 24 49  1  0  0  0
 25 27  2  0  0  0
 25 50  1  0  0  0
 26 28  2  0  0  0
 27 28  1  0  0  0
 27 51  1  0  0  0
 53 54  1  0  0  0
M  CHG  2  52  -1  53   1
M  END
> <LID>
L014568

> <PC_CID>
18939034

> <Names>


> <CAS_Numbers>


$$$$
44212041
                    3D
 Structure written by MMmdl.
 60 62  0  0  1  0            999 V2000
   -0.8965    1.6999    2.4508 S   0  0  0  0  0  0
    1.2366   -4.1846    0.0838 O   0  0  0  0  0  0
   -0.0934    0.7385    3.2222 O   0  0  0  0  0  0
   -1.1843    3.0291    3.0097 O   0  0  0  0  0  0
   -3.6812   -1.2079   -2.4681 O   0  0  0  0  0  0
   -0.0985    1.9654    0.9266 N   0  0  0  0  0  0
   -2.7982    0.0018   -0.7397 N   0  0  0  0  0  0
    1.5010   -2.2057   -1.2785 C   0  0  0  0  0  0
    2.5876   -1.5343    0.7449 C   0  0  0  0  0  0
    2.1820   -3.4336   -0.6528 C   0  0  1  0  0  0
    0.6899   -0.1626   -0.1224 C   0  0  0  0  0  0
    3.2237   -2.8458    0.2960 C   0  0  0  0  0  0
    1.0926    1.1754    0.5328 C   0  0  1  0  0  0
    2.1151    1.9832   -0.2677 C   0  0  0  0  0  0
   -0.7498    2.7933   -0.0997 C   0  0  0  0  0  0
   -2.5263    0.9259    2.0085 C   0  0  0  0  0  0
    2.0473    2.0729   -1.6779 C   0  0  0  0  0  0
    3.1450    2.6666    0.4155 C   0  0  0  0  0  0
   -2.4011   -0.5420    1.6128 C   0  0  0  0  0  0
    3.0014    2.8244   -2.3905 C   0  0  0  0  0  0
    4.0990    3.4177   -0.2976 C   0  0  0  0  0  0
    4.0288    3.4955   -1.7012 C   0  0  0  0  0  0
   -2.5621   -0.9762    0.2689 C   0  0  0  0  0  0
   -2.1397   -1.4897    2.6263 C   0  0  0  0  0  0
   -2.4101   -2.3535   -0.0317 C   0  0  0  0  0  0
   -2.0037   -2.8541    2.3167 C   0  0  0  0  0  0
   -2.1343   -3.2846    0.9860 C   0  0  0  0  0  0
   -3.2972   -0.1467   -1.9803 C   0  0  0  0  0  0
   -3.3922    1.1339   -2.8025 C   0  0  0  0  0  0
    1.8921   -2.0228   -2.2798 H   0  0  0  0  0  0
    0.4229   -2.3479   -1.3774 H   0  0  0  0  0  0
    1.8955   -1.7309    1.5659 H   0  0  0  0  0  0
    3.3267   -0.8123    1.0935 H   0  0  0  0  0  0
    2.6354   -4.0812   -1.4042 H   0  0  0  0  0  0
    0.1187    0.0180   -1.0331 H   0  0  0  0  0  0
    0.0436   -0.7161    0.5528 H   0  0  0  0  0  0
    4.1419   -2.6352   -0.2541 H   0  0  0  0  0  0
    3.4788   -3.5053    1.1267 H   0  0  0  0  0  0
    1.6112    0.9214    1.4566 H   0  0  0  0  0  0
    0.6275   -4.5851   -0.5185 H   0  0  0  0  0  0
   -1.6691    3.2348    0.2843 H   0  0  0  0  0  0
   -0.0954    3.6120   -0.3997 H   0  0  0  0  0  0
   -0.9928    2.1991   -0.9796 H   0  0  0  0  0  0
   -3.1492    0.9774    2.9018 H   0  0  0  0  0  0
   -3.0286    1.5416    1.2656 H   0  0  0  0  0  0
    1.2618    1.5753   -2.2263 H   0  0  0  0  0  0
    3.2077    2.6193    1.4931 H   0  0  0  0  0  0
    2.9434    2.8892   -3.4671 H   0  0  0  0  0  0
    4.8841    3.9364    0.2329 H   0  0  0  0  0  0
    4.7597    4.0730   -2.2480 H   0  0  0  0  0  0
   -2.0311   -1.1688    3.6522 H   0  0  0  0  0  0
   -2.4804   -2.7244   -1.0417 H   0  0  0  0  0  0
   -1.7942   -3.5687    3.0990 H   0  0  0  0  0  0
   -2.6061    0.9532   -0.4659 H   0  0  0  0  0  0
   -2.0193   -4.3309    0.7441 H   0  0  0  0  0  0
   -3.9604    0.9649   -3.7179 H   0  0  0  0  0  0
   -3.8896    1.9208   -2.2347 H   0  0  0  0  0  0
   -2.3964    1.4816   -3.0784 H   0  0  0  0  0  0
    1.8470   -1.0351   -0.4352 N   0  3  2  0  0  0
    2.5006   -0.4851   -0.9751 H   0  0  0  0  0  0
  1  3  2  0  0  0
  1  4  2  0  0  0
  1  6  1  0  0  0
  1 16  1  0  0  0
  2 10  1  0  0  0
  2 40  1  0  0  0
  5 28  2  0  0  0
  6 13  1  0  0  0
  6 15  1  0  0  0
  7 23  1  0  0  0
  7 28  1  0  0  0
  7 54  1  0  0  0
  8 10  1  0  0  0
  8 30  1  0  0  0
  8 31  1  0  0  0
  8 59  1  0  0  0
  9 12  1  0  0  0
  9 32  1  0  0  0
  9 33  1  0  0  0
  9 59  1  0  0  0
 10 12  1  0  0  0
 10 34  1  0  0  0
 11 13  1  0  0  0
 11 35  1  0  0  0
 11 36  1  0  0  0
 11 59  1  0  0  0
 12 37  1  0  0  0
 12 38  1  0  0  0
 13 14  1  0  0  0
 13 39  1  0  0  0
 14 17  2  0  0  0
 14 18  1  0  0  0
 15 41  1  0  0  0
 15 42  1  0  0  0
 15 43  1  0  0  0
 16 19  1  0  0  0
 16 44  1  0  0  0
 16 45  1  0  0  0
 17 20  1  0  0  0
 17 46  1  0  0  0
 18 21  2  0  0  0
 18 47  1  0  0  0
 19 23  1  0  0  0
 19 24  2  0  0  0
 20 22  2  0  0  0
 20 48  1  0  0  0
 21 22  1  0  0  0
 21 49  1  0  0  0
 22 50  1  0  0  0
 23 25  2  0  0  0
 24 26  1  0  0  0
 24 51  1  0  0  0
 25 27  1  0  0  0
 25 52  1  0  0  0
 26 27  2  0  0  0
 26 53  1  0  0  0
 27 55  1  0  0  0
 28 29  1  0  0  0
 29 56  1  0  0  0
 29 57  1  0  0  0
 29 58  1  0  0  0
 59 60  1  0  0  0
M  CHG  1  59   1
M  END
> <LID>
L011386

> <PC_CID>
44212041

> <Names>


> <CAS_Numbers>


$$$$
44212040
                    3D
 Structure written by MMmdl.
 53 55  0  0  1  0            999 V2000
   -0.6211    2.6326    0.9293 S   0  0  0  0  0  0
   -3.7860   -1.7019    2.7374 F   0  0  0  0  0  0
   -3.4509   -1.6262   -2.0336 F   0  0  0  0  0  0
    1.0632   -2.3744    1.9397 O   0  0  0  0  0  0
   -0.3470    1.7899    2.1039 O   0  0  0  0  0  0
   -0.2779    4.0625    0.9503 O   0  0  0  0  0  0
    0.1644    1.9297   -0.4523 N   0  0  0  0  0  0
   -0.0929   -2.2832   -0.1756 C   0  0  0  0  0  0
    2.2174   -2.2371   -0.8521 C   0  0  0  0  0  0
    0.7290   -3.1388    0.7974 C   0  0  1  0  0  0
    0.7294   -0.2888   -1.4938 C   0  0  0  0  0  0
    1.9936   -3.4779    0.0096 C   0  0  0  0  0  0
    0.9798    0.7023   -0.3164 C   0  0  1  0  0  0
    2.4478    1.0109   -0.0338 C   0  0  0  0  0  0
    0.3226    2.7441   -1.6670 C   0  0  0  0  0  0
   -2.4089    2.4734    0.4958 C   0  0  0  0  0  0
    3.3210    1.4273   -1.0643 C   0  0  0  0  0  0
    2.9449    0.8914    1.2831 C   0  0  0  0  0  0
   -2.8314    1.0159    0.4492 C   0  0  0  0  0  0
    4.6721    1.7076   -0.7831 C   0  0  0  0  0  0
    4.2960    1.1710    1.5638 C   0  0  0  0  0  0
    5.1607    1.5778    0.5305 C   0  0  0  0  0  0
   -2.9517    0.3558   -0.7917 C   0  0  0  0  0  0
   -3.1190    0.3169    1.6407 C   0  0  0  0  0  0
   -3.5194   -1.0326    1.5913 C   0  0  0  0  0  0
   -3.3527   -0.9934   -0.8410 C   0  0  0  0  0  0
   -3.6385   -1.6875    0.3504 C   0  0  0  0  0  0
   -0.7979   -2.9152   -0.7168 H   0  0  0  0  0  0
   -0.6865   -1.5256    0.3353 H   0  0  0  0  0  0
    2.7830   -1.5159   -0.2688 H   0  0  0  0  0  0
    2.7886   -2.4518   -1.7556 H   0  0  0  0  0  0
    1.3542   -0.0554   -2.3553 H   0  0  0  0  0  0
   -0.2973   -0.1682   -1.8410 H   0  0  0  0  0  0
    0.1922   -4.0328    1.1168 H   0  0  0  0  0  0
    1.8037   -4.3389   -0.6329 H   0  0  0  0  0  0
    2.8484   -3.7193    0.6429 H   0  0  0  0  0  0
    0.6159    0.1972    0.5737 H   0  0  0  0  0  0
   -0.5549    3.3734   -1.8150 H   0  0  0  0  0  0
    1.1917    3.3949   -1.5693 H   0  0  0  0  0  0
    0.4442    2.1290   -2.5572 H   0  0  0  0  0  0
    0.2798   -2.2219    2.4472 H   0  0  0  0  0  0
   -2.9878    3.0033    1.2524 H   0  0  0  0  0  0
   -2.5856    2.9693   -0.4584 H   0  0  0  0  0  0
    2.9630    1.5395   -2.0765 H   0  0  0  0  0  0
    2.2922    0.5819    2.0866 H   0  0  0  0  0  0
    5.3338    2.0249   -1.5756 H   0  0  0  0  0  0
    4.6685    1.0746    2.5731 H   0  0  0  0  0  0
    6.1969    1.7936    0.7461 H   0  0  0  0  0  0
   -2.7333    0.8805   -1.7105 H   0  0  0  0  0  0
   -3.0298    0.8127    2.5965 H   0  0  0  0  0  0
   -3.9440   -2.7227    0.3130 H   0  0  0  0  0  0
    0.8612   -1.7372   -1.1726 N   0  3  2  0  0  0
    0.6171   -2.2143   -2.0289 H   0  0  0  0  0  0
  1  5  2  0  0  0
  1  6  2  0  0  0
  1  7  1  0  0  0
  1 16  1  0  0  0
  2 25  1  0  0  0
  3 26  1  0  0  0
  4 10  1  0  0  0
  4 41  1  0  0  0
  7 13  1  0  0  0
  7 15  1  0  0  0
  8 10  1  0  0  0
  8 28  1  0  0  0
  8 29  1  0  0  0
  8 52  1  0  0  0
  9 12  1  0  0  0
  9 30  1  0  0  0
  9 31  1  0  0  0
  9 52  1  0  0  0
 10 12  1  0  0  0
 10 34  1  0  0  0
 11 13  1  0  0  0
 11 32  1  0  0  0
 11 33  1  0  0  0
 11 52  1  0  0  0
 12 35  1  0  0  0
 12 36  1  0  0  0
 13 14  1  0  0  0
 13 37  1  0  0  0
 14 17  2  0  0  0
 14 18  1  0  0  0
 15 38  1  0  0  0
 15 39  1  0  0  0
 15 40  1  0  0  0
 16 19  1  0  0  0
 16 42  1  0  0  0
 16 43  1  0  0  0
 17 20  1  0  0  0
 17 44  1  0  0  0
 18 21  2  0  0  0
 18 45  1  0  0  0
 19 23  2  0  0  0
 19 24  1  0  0  0
 20 22  2  0  0  0
 20 46  1  0  0  0
 21 22  1  0  0  0
 21 47  1  0  0  0
 22 48  1  0  0  0
 23 26  1  0  0  0
 23 49  1  0  0  0
 24 25  2  0  0  0
 24 50  1  0  0  0
 25 27  1  0  0  0
 26 27  2  0  0  0
 27 51  1  0  0  0
 52 53  1  0  0  0
M  CHG  1  52   1
M  END
> <LID>
L011385

> <PC_CID>
44212040

> <Names>


> <CAS_Numbers>


$$$$
44214505
                    3D
 Structure written by MMmdl.
 71 77  0  0  1  0            999 V2000
    5.3235    1.1809   -0.0127 O   0  0  0  0  0  0
    8.7028    0.2039   -1.7061 O   0  0  0  0  0  0
    3.7737    3.0630   -1.6891 O   0  0  0  0  0  0
    4.2949   -1.6895   -1.5029 O   0  0  0  0  0  0
    0.0628   -5.6951    1.2717 O   0  0  0  0  0  0
   10.4765    2.4117    0.7935 N   0  3  2  0  0  0
    5.4331   -1.8237    0.4589 N   0  0  0  0  0  0
    7.7008    1.3466    0.2554 C   0  0  2  0  0  0
    8.9238    0.6509   -0.3678 C   0  0  2  0  0  0
   10.0303    1.7674   -0.5111 C   0  0  1  0  0  0
    6.4461    0.4600    0.5372 C   0  0  2  0  0  0
    8.0949    2.0350    1.5916 C   0  0  0  0  0  0
    9.2927    2.9961    1.4930 C   0  0  0  0  0  0
    7.1908    2.3453   -0.7236 C   0  0  0  0  0  0
    9.1543   -0.6970    0.3580 C   0  0  0  0  0  0
    9.4928    2.8409   -1.5469 C   0  0  0  0  0  0
    6.5539   -0.9819   -0.0259 C   0  0  1  0  0  0
   11.4626    3.5337    0.5871 C   0  0  0  0  0  0
    7.9469   -1.6649    0.1987 C   0  0  0  0  0  0
    7.9900    3.1795   -1.5230 C   0  0  0  0  0  0
   12.6943    3.1887   -0.2459 C   0  0  0  0  0  0
   11.1623    1.4294    1.6892 C   0  0  0  0  0  0
    5.8177    2.2151   -0.7603 C   0  0  0  0  0  0
   13.8990    4.1018   -0.1975 C   0  0  0  0  0  0
   13.9828    2.7184    0.3934 C   0  0  0  0  0  0
    7.2834    4.0658   -2.3635 C   0  0  0  0  0  0
    5.1338    3.1141   -1.6039 C   0  0  0  0  0  0
    5.8646    4.0508   -2.3796 C   0  0  0  0  0  0
    5.4831   -2.1900    1.8857 C   0  0  0  0  0  0
    4.3885   -2.1412   -0.3594 C   0  0  0  0  0  0
    3.4083   -3.0735    0.1968 C   0  0  0  0  0  0
    2.2262   -3.2755   -0.4178 C   0  0  0  0  0  0
    1.1848   -4.1943    0.0570 C   0  0  0  0  0  0
   -0.0645   -4.4193   -0.5811 C   0  0  0  0  0  0
    1.2208   -4.9843    1.1715 C   0  0  0  0  0  0
   -0.7058   -5.3404    0.2003 C   0  0  0  0  0  0
   10.9088    1.2951   -0.9511 H   0  0  0  0  0  0
    6.2777    0.4000    1.6121 H   0  0  0  0  0  0
    7.2411    2.5908    1.9825 H   0  0  0  0  0  0
    8.3043    1.2804    2.3488 H   0  0  0  0  0  0
    9.5773    3.3279    2.4930 H   0  0  0  0  0  0
    8.9614    3.8973    0.9755 H   0  0  0  0  0  0
   10.0708   -1.1783    0.0137 H   0  0  0  0  0  0
    9.2716   -0.5598    1.4261 H   0  0  0  0  0  0
    9.6640    2.4362   -2.5451 H   0  0  0  0  0  0
   10.0567    3.7675   -1.5755 H   0  0  0  0  0  0
    6.4846   -0.8661   -1.1075 H   0  0  0  0  0  0
   11.8006    3.9072    1.5558 H   0  0  0  0  0  0
   10.9945    4.4116    0.1453 H   0  0  0  0  0  0
    8.1320   -2.3230   -0.6513 H   0  0  0  0  0  0
    7.9457   -2.3331    1.0587 H   0  0  0  0  0  0
   12.4781    2.8159   -1.2442 H   0  0  0  0  0  0
   10.4831    0.8308    2.2840 H   0  0  0  0  0  0
   11.8129    0.7572    1.1284 H   0  0  0  0  0  0
   11.7850    1.9228    2.4365 H   0  0  0  0  0  0
    9.4665   -0.2660   -2.0043 H   0  0  0  0  0  0
   14.5667    1.9748   -0.1453 H   0  0  0  0  0  0
   13.8758    4.9411    0.4950 H   0  0  0  0  0  0
   14.4312    4.2825   -1.1294 H   0  0  0  0  0  0
   14.0194    2.6416    1.4782 H   0  0  0  0  0  0
    7.8214    4.7253   -3.0285 H   0  0  0  0  0  0
    5.3353    4.7275   -3.0343 H   0  0  0  0  0  0
    4.5530   -1.9294    2.3931 H   0  0  0  0  0  0
    5.6580   -3.2604    2.0015 H   0  0  0  0  0  0
    6.2781   -1.6796    2.4285 H   0  0  0  0  0  0
    3.4064    2.3756   -1.1540 H   0  0  0  0  0  0
    3.6098   -3.6293    1.0989 H   0  0  0  0  0  0
    1.9911   -2.7403   -1.3275 H   0  0  0  0  0  0
   -0.4447   -3.9707   -1.4871 H   0  0  0  0  0  0
    1.9420   -5.1573    1.9566 H   0  0  0  0  0  0
   -1.6672   -5.8293    0.1439 H   0  0  0  0  0  0
  1 11  1  0  0  0
  1 23  1  0  0  0
  2  9  1  0  0  0
  2 56  1  0  0  0
  3 27  1  0  0  0
  3 66  1  0  0  0
  4 30  2  0  0  0
  5 35  1  0  0  0
  5 36  1  0  0  0
  6 10  1  0  0  0
  6 13  1  0  0  0
  6 18  1  0  0  0
  6 22  1  0  0  0
  7 17  1  0  0  0
  7 29  1  0  0  0
  7 30  1  0  0  0
  8  9  1  0  0  0
  8 11  1  0  0  0
  8 12  1  0  0  0
  8 14  1  0  0  0
  9 10  1  0  0  0
  9 15  1  0  0  0
 10 16  1  0  0  0
 10 37  1  0  0  0
 11 17  1  0  0  0
 11 38  1  0  0  0
 12 13  1  0  0  0
 12 39  1  0  0  0
 12 40  1  0  0  0
 13 41  1  0  0  0
 13 42  1  0  0  0
 14 20  2  0  0  0
 14 23  1  0  0  0
 15 19  1  0  0  0
 15 43  1  0  0  0
 15 44  1  0  0  0
 16 20  1  0  0  0
 16 45  1  0  0  0
 16 46  1  0  0  0
 17 19  1  0  0  0
 17 47  1  0  0  0
 18 21  1  0  0  0
 18 48  1  0  0  0
 18 49  1  0  0  0
 19 50  1  0  0  0
 19 51  1  0  0  0
 20 26  1  0  0  0
 21 24  1  0  0  0
 21 25  1  0  0  0
 21 52  1  0  0  0
 22 53  1  0  0  0
 22 54  1  0  0  0
 22 55  1  0  0  0
 23 27  2  0  0  0
 24 25  1  0  0  0
 24 58  1  0  0  0
 24 59  1  0  0  0
 25 57  1  0  0  0
 25 60  1  0  0  0
 26 28  2  0  0  0
 26 61  1  0  0  0
 27 28  1  0  0  0
 28 62  1  0  0  0
 29 63  1  0  0  0
 29 64  1  0  0  0
 29 65  1  0  0  0
 30 31  1  0  0  0
 31 32  2  0  0  0
 31 67  1  0  0  0
 32 33  1  0  0  0
 32 68  1  0  0  0
 33 34  1  0  0  0
 33 35  2  0  0  0
 34 36  2  0  0  0
 34 69  1  0  0  0
 35 70  1  0  0  0
 36 71  1  0  0  0
M  CHG  1   6   1
M  END
> <LID>
L017891

> <PC_CID>
44214505

> <Names>


> <CAS_Numbers>


$$$$
44211282
                    3D
 Structure written by MMmdl.
 46 48  0  0  1  0            999 V2000
   -2.3560    1.1702   -0.4296 O   0  0  0  0  0  0
    1.4779    3.6510   -0.5150 O   0  0  0  0  0  0
    4.7624   -0.7779   -1.0898 O   0  0  0  0  0  0
   -0.0192    0.4232   -0.6085 C   0  0  2  0  0  0
   -1.2629    0.6755    0.3348 C   0  0  2  0  0  0
   -0.4519   -0.6886   -1.6006 C   0  0  0  0  0  0
   -1.8199   -0.6227    0.9973 C   0  0  0  0  0  0
    0.2596    1.7507   -1.3744 C   0  0  0  0  0  0
   -1.0246    1.8431    1.3353 C   0  0  0  0  0  0
   -0.8582   -1.9790   -0.8606 C   0  0  0  0  0  0
    1.3164   -0.0300    0.0571 C   0  0  0  0  0  0
   -0.5738    3.1557    0.6551 C   0  0  0  0  0  0
    0.4943    2.9214   -0.4142 C   0  0  0  0  0  0
   -3.3267   -1.8207   -0.6434 C   0  0  0  0  0  0
    2.4537   -0.2076   -0.7737 C   0  0  0  0  0  0
    1.4817   -0.2973    1.4411 C   0  0  0  0  0  0
    3.6952   -0.6205   -0.2545 C   0  0  0  0  0  0
    2.7219   -0.7098    1.9654 C   0  0  0  0  0  0
   -4.4763   -1.9752    0.3333 C   0  0  0  0  0  0
    3.8322   -0.8714    1.1207 C   0  0  0  0  0  0
   -5.4691   -1.0852    0.4814 C   0  0  0  0  0  0
    0.3456   -0.9150   -2.3078 H   0  0  0  0  0  0
   -1.2812   -0.3527   -2.2235 H   0  0  0  0  0  0
   -1.1529   -0.9894    1.7704 H   0  0  0  0  0  0
   -2.7431   -0.4020    1.5338 H   0  0  0  0  0  0
   -0.5900    2.0127   -2.0049 H   0  0  0  0  0  0
    1.1073    1.6631   -2.0523 H   0  0  0  0  0  0
   -0.2962    1.5958    2.1006 H   0  0  0  0  0  0
   -1.9427    2.0397    1.8913 H   0  0  0  0  0  0
   -1.0868   -2.7676   -1.5785 H   0  0  0  0  0  0
   -0.0204   -2.3551   -0.2727 H   0  0  0  0  0  0
   -0.2012    3.8595    1.3997 H   0  0  0  0  0  0
   -1.4265    3.6329    0.1716 H   0  0  0  0  0  0
   -2.5012    0.5971   -1.1661 H   0  0  0  0  0  0
   -3.4805   -0.9512   -1.2807 H   0  0  0  0  0  0
   -3.3540   -2.6901   -1.3012 H   0  0  0  0  0  0
    2.3876   -0.0297   -1.8364 H   0  0  0  0  0  0
    0.6865   -0.2009    2.1538 H   0  0  0  0  0  0
    2.8207   -0.9034    3.0235 H   0  0  0  0  0  0
   -4.4754   -2.8685    0.9414 H   0  0  0  0  0  0
    4.7803   -1.1883    1.5301 H   0  0  0  0  0  0
   -6.2620   -1.2520    1.1959 H   0  0  0  0  0  0
   -5.5049   -0.1792   -0.1061 H   0  0  0  0  0  0
    5.5499   -1.0471   -0.6424 H   0  0  0  0  0  0
   -2.0118   -1.7664    0.0519 N   0  3  2  0  0  0
   -2.0271   -2.5869    0.6411 H   0  0  0  0  0  0
  1  5  1  0  0  0
  1 34  1  0  0  0
  2 13  2  0  0  0
  3 17  1  0  0  0
  3 44  1  0  0  0
  4  5  1  0  0  0
  4  6  1  0  0  0
  4  8  1  0  0  0
  4 11  1  0  0  0
  5  7  1  0  0  0
  5  9  1  0  0  0
  6 10  1  0  0  0
  6 22  1  0  0  0
  6 23  1  0  0  0
  7 24  1  0  0  0
  7 25  1  0  0  0
  7 45  1  0  0  0
  8 13  1  0  0  0
  8 26  1  0  0  0
  8 27  1  0  0  0
  9 12  1  0  0  0
  9 28  1  0  0  0
  9 29  1  0  0  0
 10 30  1  0  0  0
 10 31  1  0  0  0
 10 45  1  0  0  0
 11 15  2  0  0  0
 11 16  1  0  0  0
 12 13  1  0  0  0
 12 32  1  0  0  0
 12 33  1  0  0  0
 14 19  1  0  0  0
 14 35  1  0  0  0
 14 36  1  0  0  0
 14 45  1  0  0  0
 15 17  1  0  0  0
 15 37  1  0  0  0
 16 18  2  0  0  0
 16 38  1  0  0  0
 17 20  2  0  0  0
 18 20  1  0  0  0
 18 39  1  0  0  0
 19 21  2  0  0  0
 19 40  1  0  0  0
 20 41  1  0  0  0
 21 42  1  0  0  0
 21 43  1  0  0  0
 45 46  1  0  0  0
M  CHG  1  45   1
M  END
> <LID>
L009521

> <PC_CID>
44211282

> <Names>


> <CAS_Numbers>


$$$$
44209561
                    3D
 Structure written by MMmdl.
 58 61  0  0  1  0            999 V2000
    6.3452   -1.3615   -1.8596 Cl  0  0  0  0  0  0
    7.6975    0.0140    0.6799 Cl  0  0  0  0  0  0
    1.3946   -0.9188    0.7451 O   0  0  0  0  0  0
   -0.4457    0.1378   -0.0549 N   0  0  0  0  0  0
   -3.1571    1.0719    0.5410 C   0  0  1  0  0  0
   -2.1202    1.9903   -0.1330 C   0  0  1  0  0  0
   -2.4296    0.0388    1.4121 C   0  0  0  0  0  0
   -1.3872   -0.7871    0.6224 C   0  0  1  0  0  0
   -1.0853    1.1590   -0.9131 C   0  0  0  0  0  0
   -4.1767    1.8973    1.3482 C   0  0  0  0  0  0
   -2.8187    3.0320   -1.0281 C   0  0  0  0  0  0
   -4.8717    2.9431    0.4616 C   0  0  0  0  0  0
   -3.8466    3.8533   -0.2327 C   0  0  0  0  0  0
   -1.9528   -1.8017   -0.4072 C   0  0  0  0  0  0
    0.8996   -0.0016    0.0865 C   0  0  0  0  0  0
   -2.6299   -4.1898   -0.6137 C   0  0  0  0  0  0
   -4.1195   -2.6918    0.5103 C   0  0  0  0  0  0
   -4.0701   -4.5633   -0.9647 C   0  0  0  0  0  0
   -4.8700   -3.9828    0.1895 C   0  0  0  0  0  0
    1.8408    1.0149   -0.5911 C   0  0  0  0  0  0
    3.3088    0.7608   -0.2784 C   0  0  0  0  0  0
    4.0763   -0.0820   -1.1099 C   0  0  0  0  0  0
    3.9114    1.3687    0.8429 C   0  0  0  0  0  0
    5.4350   -0.3212   -0.8231 C   0  0  0  0  0  0
    5.2691    1.1317    1.1312 C   0  0  0  0  0  0
    6.0339    0.2879    0.3018 C   0  0  0  0  0  0
   -3.7073    0.5401   -0.2362 H   0  0  0  0  0  0
   -1.5841    2.5325    0.6482 H   0  0  0  0  0  0
   -1.9092    0.5668    2.2129 H   0  0  0  0  0  0
   -3.1423   -0.6020    1.9229 H   0  0  0  0  0  0
   -0.8671   -1.3780    1.3778 H   0  0  0  0  0  0
   -1.5702    0.6564   -1.7500 H   0  0  0  0  0  0
   -0.3819    1.8476   -1.3761 H   0  0  0  0  0  0
   -3.6756    2.3987    2.1774 H   0  0  0  0  0  0
   -4.9242    1.2385    1.7917 H   0  0  0  0  0  0
   -3.3174    2.5314   -1.8592 H   0  0  0  0  0  0
   -2.0801    3.7019   -1.4697 H   0  0  0  0  0  0
   -5.5564    3.5436    1.0612 H   0  0  0  0  0  0
   -5.4803    2.4387   -0.2900 H   0  0  0  0  0  0
   -4.3582    4.5518   -0.8956 H   0  0  0  0  0  0
   -3.3310    4.4582    0.5143 H   0  0  0  0  0  0
   -2.5696   -1.3215   -1.1668 H   0  0  0  0  0  0
   -1.0910   -2.2031   -0.9428 H   0  0  0  0  0  0
   -2.1868   -4.9702    0.0061 H   0  0  0  0  0  0
   -2.0169   -4.1065   -1.5121 H   0  0  0  0  0  0
   -4.5102   -1.8833   -0.1092 H   0  0  0  0  0  0
   -4.2637   -2.4164    1.5540 H   0  0  0  0  0  0
   -4.3629   -4.0783   -1.8971 H   0  0  0  0  0  0
   -4.2129   -5.6377   -1.0845 H   0  0  0  0  0  0
   -4.8321   -4.6600    1.0441 H   0  0  0  0  0  0
   -5.9178   -3.8137   -0.0607 H   0  0  0  0  0  0
    1.7017    0.9763   -1.6723 H   0  0  0  0  0  0
    1.5855    2.0236   -0.2635 H   0  0  0  0  0  0
    3.6217   -0.5517   -1.9699 H   0  0  0  0  0  0
    3.3334    2.0152    1.4871 H   0  0  0  0  0  0
    5.7242    1.5987    1.9923 H   0  0  0  0  0  0
   -2.6890   -2.9458    0.1980 N   0  3  0  0  0  0
   -2.2235   -3.1680    1.0667 H   0  0  0  0  0  0
  1 24  1  0  0  0
  2 26  1  0  0  0
  3 15  2  0  0  0
  4  8  1  0  0  0
  4  9  1  0  0  0
  4 15  1  0  0  0
  5  6  1  0  0  0
  5  7  1  0  0  0
  5 10  1  0  0  0
  5 27  1  0  0  0
  6  9  1  0  0  0
  6 11  1  0  0  0
  6 28  1  0  0  0
  7  8  1  0  0  0
  7 29  1  0  0  0
  7 30  1  0  0  0
  8 14  1  0  0  0
  8 31  1  0  0  0
  9 32  1  0  0  0
  9 33  1  0  0  0
 10 12  1  0  0  0
 10 34  1  0  0  0
 10 35  1  0  0  0
 11 13  1  0  0  0
 11 36  1  0  0  0
 11 37  1  0  0  0
 12 13  1  0  0  0
 12 38  1  0  0  0
 12 39  1  0  0  0
 13 40  1  0  0  0
 13 41  1  0  0  0
 14 42  1  0  0  0
 14 43  1  0  0  0
 14 57  1  0  0  0
 15 20  1  0  0  0
 16 18  1  0  0  0
 16 44  1  0  0  0
 16 45  1  0  0  0
 16 57  1  0  0  0
 17 19  1  0  0  0
 17 46  1  0  0  0
 17 47  1  0  0  0
 17 57  1  0  0  0
 18 19  1  0  0  0
 18 48  1  0  0  0
 18 49  1  0  0  0
 19 50  1  0  0  0
 19 51  1  0  0  0
 20 21  1  0  0  0
 20 52  1  0  0  0
 20 53  1  0  0  0
 21 22  2  0  0  0
 21 23  1  0  0  0
 22 24  1  0  0  0
 22 54  1  0  0  0
 23 25  2  0  0  0
 23 55  1  0  0  0
 24 26  2  0  0  0
 25 26  1  0  0  0
 25 56  1  0  0  0
 57 58  1  0  0  0
M  CHG  1  57   1
M  END
> <LID>
L004241

> <PC_CID>
44209561

> <Names>


> <CAS_Numbers>


$$$$
15645979
                    3D
 Structure written by MMmdl.
 52 54  0  0  1  0            999 V2000
    6.7306    0.9012    0.7000 Cl  0  0  0  0  0  0
    7.3917   -0.8223   -1.9005 Cl  0  0  0  0  0  0
    1.2800    0.3658   -0.5108 O   0  0  0  0  0  0
   -3.1262    5.9195   -0.6270 O   0  0  0  0  0  0
   -4.0352   -2.0251   -1.5877 O   0  0  0  0  0  0
   -3.1640   -3.9823   -0.8303 O   0  0  0  0  0  0
   -0.3179   -0.5721    0.7878 N   0  0  0  0  0  0
   -2.6322   -1.9456    0.1941 N   0  0  0  0  0  0
   -1.4075    0.2433    0.2058 C   0  0  2  0  0  0
   -1.4191    1.6566    0.8370 C   0  0  0  0  0  0
   -2.7783   -0.4817    0.2894 C   0  0  0  0  0  0
   -0.7662   -1.5319    1.8076 C   0  0  0  0  0  0
   -1.7366   -2.5547    1.1863 C   0  0  0  0  0  0
   -3.7109    2.6881    0.7772 C   0  0  0  0  0  0
   -1.8333    3.9590    0.0047 C   0  0  0  0  0  0
   -4.3129    4.0162    0.3084 C   0  0  0  0  0  0
    0.9585   -0.4701    0.3368 C   0  0  0  0  0  0
   -3.0959    4.7805   -0.1683 C   0  0  0  0  0  0
   -3.2722   -2.7571   -0.7527 C   0  0  0  0  0  0
    2.0308   -1.4268    0.8940 C   0  0  0  0  0  0
    3.3760   -1.2713    0.1991 C   0  0  0  0  0  0
    4.3348   -0.3666    0.7020 C   0  0  0  0  0  0
    3.6732   -2.0331   -0.9504 C   0  0  0  0  0  0
   -4.7647   -2.6659   -2.6207 C   0  0  0  0  0  0
    5.5805   -0.2185    0.0604 C   0  0  0  0  0  0
    4.9176   -1.8873   -1.5928 C   0  0  0  0  0  0
    5.8733   -0.9817   -1.0915 C   0  0  0  0  0  0
   -1.2027    0.3517   -0.8615 H   0  0  0  0  0  0
   -1.6255    1.6044    1.9069 H   0  0  0  0  0  0
   -0.4146    2.0745    0.7542 H   0  0  0  0  0  0
   -3.4527   -0.0547   -0.4513 H   0  0  0  0  0  0
   -3.2448   -0.2785    1.2546 H   0  0  0  0  0  0
   -1.2836   -0.9687    2.5858 H   0  0  0  0  0  0
    0.0351   -2.0509    2.3309 H   0  0  0  0  0  0
   -2.3244   -3.0428    1.9646 H   0  0  0  0  0  0
   -1.1439   -3.3345    0.7044 H   0  0  0  0  0  0
   -4.3454    1.8479    0.4986 H   0  0  0  0  0  0
   -3.6321    2.6960    1.8655 H   0  0  0  0  0  0
   -1.3063    4.2873    0.9013 H   0  0  0  0  0  0
   -1.1700    4.0376   -0.8571 H   0  0  0  0  0  0
   -4.9979    3.8714   -0.5273 H   0  0  0  0  0  0
   -4.8343    4.5425    1.1083 H   0  0  0  0  0  0
    2.1609   -1.2440    1.9614 H   0  0  0  0  0  0
    1.6967   -2.4587    0.7783 H   0  0  0  0  0  0
    4.1142    0.2208    1.5814 H   0  0  0  0  0  0
    2.9465   -2.7284   -1.3447 H   0  0  0  0  0  0
   -5.3221   -1.9257   -3.1946 H   0  0  0  0  0  0
   -4.0943   -3.1909   -3.3023 H   0  0  0  0  0  0
   -5.4757   -3.3826   -2.2079 H   0  0  0  0  0  0
    5.1385   -2.4722   -2.4737 H   0  0  0  0  0  0
   -2.3619    2.5861    0.1630 N   0  3  1  0  0  0
   -2.4989    2.2445   -0.7780 H   0  0  0  0  0  0
  1 25  1  0  0  0
  2 27  1  0  0  0
  3 17  2  0  0  0
  4 18  2  0  0  0
  5 19  1  0  0  0
  5 24  1  0  0  0
  6 19  2  0  0  0
  7  9  1  0  0  0
  7 12  1  0  0  0
  7 17  1  0  0  0
  8 11  1  0  0  0
  8 13  1  0  0  0
  8 19  1  0  0  0
  9 10  1  0  0  0
  9 11  1  0  0  0
  9 28  1  0  0  0
 10 29  1  0  0  0
 10 30  1  0  0  0
 10 51  1  0  0  0
 11 31  1  0  0  0
 11 32  1  0  0  0
 12 13  1  0  0  0
 12 33  1  0  0  0
 12 34  1  0  0  0
 13 35  1  0  0  0
 13 36  1  0  0  0
 14 16  1  0  0  0
 14 37  1  0  0  0
 14 38  1  0  0  0
 14 51  1  0  0  0
 15 18  1  0  0  0
 15 39  1  0  0  0
 15 40  1  0  0  0
 15 51  1  0  0  0
 16 18  1  0  0  0
 16 41  1  0  0  0
 16 42  1  0  0  0
 17 20  1  0  0  0
 20 21  1  0  0  0
 20 43  1  0  0  0
 20 44  1  0  0  0
 21 22  2  0  0  0
 21 23  1  0  0  0
 22 25  1  0  0  0
 22 45  1  0  0  0
 23 26  2  0  0  0
 23 46  1  0  0  0
 24 47  1  0  0  0
 24 48  1  0  0  0
 24 49  1  0  0  0
 25 27  2  0  0  0
 26 27  1  0  0  0
 26 50  1  0  0  0
 51 52  1  0  0  0
M  CHG  1  51   1
M  END
> <LID>
L004341

> <PC_CID>
15645979

> <Names>


> <CAS_Numbers>


$$$$
15645978
                    3D
 Structure written by MMmdl.
 54 56  0  0  1  0            999 V2000
    6.8054   -0.8906    0.5089 Cl  0  0  0  0  0  0
    7.4531    1.1146   -1.8848 Cl  0  0  0  0  0  0
   -3.1635   -5.8414   -0.9702 O   0  0  0  0  0  0
    1.3483   -0.2126   -0.5908 O   0  0  0  0  0  0
   -3.9005    2.3780   -1.4155 O   0  0  0  0  0  0
   -3.0011    4.2156   -0.4272 O   0  0  0  0  0  0
   -0.2411    0.5905    0.8052 N   0  0  0  0  0  0
   -2.5206    2.0633    0.3589 N   0  0  0  0  0  0
   -1.3403   -0.1430    0.1387 C   0  0  1  0  0  0
   -1.3767   -1.6118    0.6297 C   0  0  0  0  0  0
   -1.8637   -3.8729   -0.3181 C   0  0  0  0  0  0
   -3.7054   -2.5277    0.3854 C   0  0  0  0  0  0
   -2.6965    0.6010    0.2826 C   0  0  0  0  0  0
   -3.0743   -4.7779   -0.0461 C   0  0  1  0  0  0
   -4.2736   -3.8421   -0.1387 C   0  0  0  0  0  0
   -0.6792    1.4319    1.9283 C   0  0  0  0  0  0
   -1.6282    2.5360    1.4255 C   0  0  0  0  0  0
    1.0340    0.5281    0.3435 C   0  0  0  0  0  0
   -3.1335    2.9921   -0.4936 C   0  0  0  0  0  0
    2.1140    1.4105    0.9996 C   0  0  0  0  0  0
    3.4537    1.3317    0.2817 C   0  0  0  0  0  0
    4.4134    0.3739    0.6720 C   0  0  0  0  0  0
    3.7450    2.2180   -0.7764 C   0  0  0  0  0  0
   -4.6049    3.1492   -2.3740 C   0  0  0  0  0  0
    5.6541    0.2966    0.0086 C   0  0  0  0  0  0
    4.9844    2.1432   -1.4404 C   0  0  0  0  0  0
    5.9410    1.1846   -1.0518 C   0  0  0  0  0  0
   -1.1292   -0.1515   -0.9327 H   0  0  0  0  0  0
   -0.3726   -2.0212    0.5110 H   0  0  0  0  0  0
   -1.5903   -1.6642    1.6981 H   0  0  0  0  0  0
   -1.5028   -3.9800   -1.3420 H   0  0  0  0  0  0
   -1.0421   -4.1427    0.3473 H   0  0  0  0  0  0
   -3.6970   -2.5463    1.4764 H   0  0  0  0  0  0
   -4.3087   -1.6785    0.0685 H   0  0  0  0  0  0
   -3.3623    0.2798   -0.5163 H   0  0  0  0  0  0
   -3.1869    0.2985    1.2090 H   0  0  0  0  0  0
   -3.0065   -5.1823    0.9651 H   0  0  0  0  0  0
   -4.5840   -3.7177   -1.1777 H   0  0  0  0  0  0
   -5.1341   -4.1928    0.4320 H   0  0  0  0  0  0
    0.1277    1.8712    2.5125 H   0  0  0  0  0  0
   -1.2119    0.7911    2.6327 H   0  0  0  0  0  0
   -2.2179    2.9362    2.2511 H   0  0  0  0  0  0
   -1.0191    3.3589    1.0466 H   0  0  0  0  0  0
   -3.9148   -6.3727   -0.7524 H   0  0  0  0  0  0
    1.7837    2.4501    1.0060 H   0  0  0  0  0  0
    2.2501    1.1054    2.0378 H   0  0  0  0  0  0
    4.1973   -0.3088    1.4808 H   0  0  0  0  0  0
    3.0175    2.9549   -1.0842 H   0  0  0  0  0  0
   -5.1695    2.4923   -3.0355 H   0  0  0  0  0  0
   -5.3068    3.8277   -1.8877 H   0  0  0  0  0  0
   -3.9163    3.7358   -2.9834 H   0  0  0  0  0  0
    5.2007    2.8234   -2.2511 H   0  0  0  0  0  0
   -2.3193   -2.4707   -0.1358 N   0  3  1  0  0  0
   -2.3756   -2.0906   -1.0702 H   0  0  0  0  0  0
  1 25  1  0  0  0
  2 27  1  0  0  0
  3 14  1  0  0  0
  3 44  1  0  0  0
  4 18  2  0  0  0
  5 19  1  0  0  0
  5 24  1  0  0  0
  6 19  2  0  0  0
  7  9  1  0  0  0
  7 16  1  0  0  0
  7 18  1  0  0  0
  8 13  1  0  0  0
  8 17  1  0  0  0
  8 19  1  0  0  0
  9 10  1  0  0  0
  9 13  1  0  0  0
  9 28  1  0  0  0
 10 29  1  0  0  0
 10 30  1  0  0  0
 10 53  1  0  0  0
 11 14  1  0  0  0
 11 31  1  0  0  0
 11 32  1  0  0  0
 11 53  1  0  0  0
 12 15  1  0  0  0
 12 33  1  0  0  0
 12 34  1  0  0  0
 12 53  1  0  0  0
 13 35  1  0  0  0
 13 36  1  0  0  0
 14 15  1  0  0  0
 14 37  1  0  0  0
 15 38  1  0  0  0
 15 39  1  0  0  0
 16 17  1  0  0  0
 16 40  1  0  0  0
 16 41  1  0  0  0
 17 42  1  0  0  0
 17 43  1  0  0  0
 18 20  1  0  0  0
 20 21  1  0  0  0
 20 45  1  0  0  0
 20 46  1  0  0  0
 21 22  2  0  0  0
 21 23  1  0  0  0
 22 25  1  0  0  0
 22 47  1  0  0  0
 23 26  2  0  0  0
 23 48  1  0  0  0
 24 49  1  0  0  0
 24 50  1  0  0  0
 24 51  1  0  0  0
 25 27  2  0  0  0
 26 27  1  0  0  0
 26 52  1  0  0  0
 53 54  1  0  0  0
M  CHG  1  53   1
M  END
> <LID>
L004340

> <PC_CID>
15645978

> <Names>


> <CAS_Numbers>


$$$$
5360630
                    3D
 Structure written by MMmdl.
 54 59  0  0  1  0            999 V2000
    3.0079   -0.3203   -1.2319 O   0  0  0  0  0  0
   -0.4915   -2.5197    0.5200 O   0  0  0  0  0  0
    3.8596   -2.8338   -0.3414 O   0  0  0  0  0  0
    4.5279    2.1831   -0.9011 O   0  0  0  0  0  0
    0.7523   -0.6214   -0.4532 C   0  0  1  0  0  0
    0.0768   -1.2457    0.7911 C   0  0  1  0  0  0
   -1.0655   -0.2563    1.1915 C   0  0  1  0  0  0
    2.0368   -1.3563   -0.9829 C   0  0  2  0  0  0
   -0.2649   -0.3563   -1.6044 C   0  0  0  0  0  0
    1.3323    0.7007   -0.0277 C   0  0  0  0  0  0
    1.0965   -1.5124    1.9466 C   0  0  0  0  0  0
    2.5694   -2.3972    0.0316 C   0  0  2  0  0  0
   -0.5199    1.1470    1.5762 C   0  0  0  0  0  0
   -1.7409   -0.5760   -1.2321 C   0  0  0  0  0  0
    2.5247   -1.8966    1.4840 C   0  0  0  0  0  0
    0.7255    1.6329    0.8325 C   0  0  0  0  0  0
    2.5897    0.8037   -0.5865 C   0  0  0  0  0  0
   -3.4658   -0.3941    0.5499 C   0  0  0  0  0  0
   -4.5496    0.2129   -0.3410 C   0  0  0  0  0  0
    1.4409    2.8302    1.0460 C   0  0  0  0  0  0
   -4.7272    1.7390   -0.3893 C   0  0  0  0  0  0
   -6.0164    0.1397    0.1117 C   0  0  0  0  0  0
    3.2854    2.0095   -0.3670 C   0  0  0  0  0  0
   -6.2353    1.5155   -0.5221 C   0  0  0  0  0  0
    2.7008    3.0260    0.4280 C   0  0  0  0  0  0
   -1.5638   -0.6637    2.0729 H   0  0  0  0  0  0
    1.8509   -1.8778   -1.9221 H   0  0  0  0  0  0
   -0.0597   -1.0021   -2.4579 H   0  0  0  0  0  0
   -0.1402    0.6556   -1.9940 H   0  0  0  0  0  0
    0.7075   -2.2855    2.6117 H   0  0  0  0  0  0
    1.1984   -0.6383    2.5878 H   0  0  0  0  0  0
    1.9441   -3.2876   -0.0316 H   0  0  0  0  0  0
   -0.2554    1.1371    2.6340 H   0  0  0  0  0  0
   -1.2997    1.9053    1.4915 H   0  0  0  0  0  0
   -2.3579   -0.0953   -1.9907 H   0  0  0  0  0  0
   -1.9875   -1.6368   -1.2840 H   0  0  0  0  0  0
    3.1802   -1.0298    1.5791 H   0  0  0  0  0  0
    2.9327   -2.6507    2.1580 H   0  0  0  0  0  0
   -3.6182   -0.0349    1.5688 H   0  0  0  0  0  0
   -3.5646   -1.4798    0.5919 H   0  0  0  0  0  0
    0.2018   -3.1287    0.3162 H   0  0  0  0  0  0
   -4.5011   -0.1767   -1.3593 H   0  0  0  0  0  0
    1.0457    3.5849    1.7100 H   0  0  0  0  0  0
   -4.2609    2.2255   -1.2466 H   0  0  0  0  0  0
   -4.4563    2.2298    0.5472 H   0  0  0  0  0  0
   -6.1301    0.1553    1.1971 H   0  0  0  0  0  0
   -6.5941   -0.6677   -0.3396 H   0  0  0  0  0  0
   -6.8530    2.1968    0.0640 H   0  0  0  0  0  0
   -6.5661    1.4568   -1.5604 H   0  0  0  0  0  0
    4.1375   -3.5099    0.2577 H   0  0  0  0  0  0
    3.2425    3.9438    0.6043 H   0  0  0  0  0  0
    4.8159    1.4289   -1.3932 H   0  0  0  0  0  0
   -2.0883   -0.0411    0.1125 N   0  3  1  0  0  0
   -2.1038    0.9616   -0.0076 H   0  0  0  0  0  0
  1  8  1  0  0  0
  1 17  1  0  0  0
  2  6  1  0  0  0
  2 41  1  0  0  0
  3 12  1  0  0  0
  3 50  1  0  0  0
  4 23  1  0  0  0
  4 52  1  0  0  0
  5  6  1  0  0  0
  5  8  1  0  0  0
  5  9  1  0  0  0
  5 10  1  0  0  0
  6  7  1  0  0  0
  6 11  1  0  0  0
  7 13  1  0  0  0
  7 26  1  0  0  0
  7 53  1  0  0  0
  8 12  1  0  0  0
  8 27  1  0  0  0
  9 14  1  0  0  0
  9 28  1  0  0  0
  9 29  1  0  0  0
 10 16  2  0  0  0
 10 17  1  0  0  0
 11 15  1  0  0  0
 11 30  1  0  0  0
 11 31  1  0  0  0
 12 15  1  0  0  0
 12 32  1  0  0  0
 13 16  1  0  0  0
 13 33  1  0  0  0
 13 34  1  0  0  0
 14 35  1  0  0  0
 14 36  1  0  0  0
 14 53  1  0  0  0
 15 37  1  0  0  0
 15 38  1  0  0  0
 16 20  1  0  0  0
 17 23  2  0  0  0
 18 19  1  0  0  0
 18 39  1  0  0  0
 18 40  1  0  0  0
 18 53  1  0  0  0
 19 21  1  0  0  0
 19 22  1  0  0  0
 19 42  1  0  0  0
 20 25  2  0  0  0
 20 43  1  0  0  0
 21 24  1  0  0  0
 21 44  1  0  0  0
 21 45  1  0  0  0
 22 24  1  0  0  0
 22 46  1  0  0  0
 22 47  1  0  0  0
 23 25  1  0  0  0
 24 48  1  0  0  0
 24 49  1  0  0  0
 25 51  1  0  0  0
 53 54  1  0  0  0
M  CHG  1  53   1
M  END
> <LID>
L024030

> <PC_CID>
5360630

> <Names>
Nalbuphine

> <CAS_Numbers>
23277-43-2;20594-83-6

$$$$
15645974
                    3D
 Structure written by MMmdl.
 54 56  0  0  1  0            999 V2000
   -6.6342    1.3248    0.9698 Cl  0  0  0  0  0  0
   -7.4884   -0.2724   -1.6550 Cl  0  0  0  0  0  0
   -1.2712    0.4056   -0.4060 O   0  0  0  0  0  0
    4.0373   -2.1554   -1.4509 O   0  0  0  0  0  0
    3.0881   -4.1084   -0.7803 O   0  0  0  0  0  0
    0.2756   -0.6501    0.8639 N   0  0  0  0  0  0
    2.5744   -2.0867    0.2820 N   0  0  0  0  0  0
    1.4027    0.1210    0.2938 C   0  0  2  0  0  0
    2.7542   -0.6313    0.4211 C   0  0  0  0  0  0
    1.4650    1.5386    0.9126 C   0  0  0  0  0  0
    0.6747   -1.6599    1.8566 C   0  0  0  0  0  0
    1.6225   -2.6958    1.2200 C   0  0  0  0  0  0
    2.8503    3.5623    1.1826 C   0  0  0  0  0  0
    2.2509    2.7902   -1.0874 C   0  0  0  0  0  0
   -0.9958   -0.4617    0.4264 C   0  0  0  0  0  0
    4.1171    4.2868    0.6899 C   0  0  0  0  0  0
    3.2262   -2.8893   -0.6641 C   0  0  0  0  0  0
   -2.1223   -1.3560    0.9802 C   0  0  0  0  0  0
    3.2648    3.7951   -1.6097 C   0  0  0  0  0  0
    4.1058    4.4720   -0.8126 C   0  0  0  0  0  0
   -3.4683   -1.0806    0.3253 C   0  0  0  0  0  0
   -4.3427   -0.1200    0.8762 C   0  0  0  0  0  0
   -3.8509   -1.7861   -0.8348 C   0  0  0  0  0  0
    4.7856   -2.7870   -2.4760 C   0  0  0  0  0  0
   -5.5889    0.1392    0.2718 C   0  0  0  0  0  0
   -5.0959   -1.5293   -1.4401 C   0  0  0  0  0  0
   -5.9672   -0.5680   -0.8908 C   0  0  0  0  0  0
    1.2125    0.2032   -0.7773 H   0  0  0  0  0  0
    3.4737   -0.1988   -0.2734 H   0  0  0  0  0  0
    3.1816   -0.4605    1.4104 H   0  0  0  0  0  0
    0.5071    2.0518    0.8161 H   0  0  0  0  0  0
    1.6423    1.4319    1.9838 H   0  0  0  0  0  0
   -0.1520   -2.1724    2.3453 H   0  0  0  0  0  0
    1.1937   -1.1412    2.6640 H   0  0  0  0  0  0
    2.1646   -3.2401    1.9942 H   0  0  0  0  0  0
    1.0147   -3.4295    0.6872 H   0  0  0  0  0  0
    3.0010    3.2478    2.2162 H   0  0  0  0  0  0
    2.0009    4.2476    1.1823 H   0  0  0  0  0  0
    2.2850    1.9134   -1.7333 H   0  0  0  0  0  0
    1.2539    3.2244   -1.1744 H   0  0  0  0  0  0
    4.2017    5.2600    1.1745 H   0  0  0  0  0  0
    5.0093    3.7191    0.9561 H   0  0  0  0  0  0
   -1.8665   -2.4049    0.8239 H   0  0  0  0  0  0
   -2.2148   -1.1997    2.0557 H   0  0  0  0  0  0
    3.2801    3.9650   -2.6766 H   0  0  0  0  0  0
    4.8184    5.1666   -1.2336 H   0  0  0  0  0  0
   -4.0564    0.4248    1.7640 H   0  0  0  0  0  0
   -3.1891   -2.5233   -1.2657 H   0  0  0  0  0  0
    5.3821   -2.0466   -3.0089 H   0  0  0  0  0  0
    5.4625   -3.5340   -2.0596 H   0  0  0  0  0  0
    4.1261   -3.2744   -3.1951 H   0  0  0  0  0  0
   -5.3823   -2.0715   -2.3293 H   0  0  0  0  0  0
    2.5284    2.3933    0.3235 N   0  3  2  0  0  0
    3.3687    1.8332    0.3061 H   0  0  0  0  0  0
  1 25  1  0  0  0
  2 27  1  0  0  0
  3 15  2  0  0  0
  4 17  1  0  0  0
  4 24  1  0  0  0
  5 17  2  0  0  0
  6  8  1  0  0  0
  6 11  1  0  0  0
  6 15  1  0  0  0
  7  9  1  0  0  0
  7 12  1  0  0  0
  7 17  1  0  0  0
  8  9  1  0  0  0
  8 10  1  0  0  0
  8 28  1  0  0  0
  9 29  1  0  0  0
  9 30  1  0  0  0
 10 31  1  0  0  0
 10 32  1  0  0  0
 10 53  1  0  0  0
 11 12  1  0  0  0
 11 33  1  0  0  0
 11 34  1  0  0  0
 12 35  1  0  0  0
 12 36  1  0  0  0
 13 16  1  0  0  0
 13 37  1  0  0  0
 13 38  1  0  0  0
 13 53  1  0  0  0
 14 19  1  0  0  0
 14 39  1  0  0  0
 14 40  1  0  0  0
 14 53  1  0  0  0
 15 18  1  0  0  0
 16 20  1  0  0  0
 16 41  1  0  0  0
 16 42  1  0  0  0
 18 21  1  0  0  0
 18 43  1  0  0  0
 18 44  1  0  0  0
 19 20  2  0  0  0
 19 45  1  0  0  0
 20 46  1  0  0  0
 21 22  2  0  0  0
 21 23  1  0  0  0
 22 25  1  0  0  0
 22 47  1  0  0  0
 23 26  2  0  0  0
 23 48  1  0  0  0
 24 49  1  0  0  0
 24 50  1  0  0  0
 24 51  1  0  0  0
 25 27  2  0  0  0
 26 27  1  0  0  0
 26 52  1  0  0  0
 53 54  1  0  0  0
M  CHG  1  53   1
M  END
> <LID>
L003489

> <PC_CID>
15645974

> <Names>


> <CAS_Numbers>


$$$$
44214508
                    3D
 Structure written by MMmdl.
 72 78  0  0  1  0            999 V2000
    1.4354   -6.5851    2.9372 F   0  0  0  0  0  0
    0.0918   -4.9498    2.4701 F   0  0  0  0  0  0
    0.4356   -6.5261    1.0227 F   0  0  0  0  0  0
    8.4314    2.1869   -0.4946 O   0  0  0  0  0  0
   11.6107    1.2835   -2.5713 O   0  0  0  0  0  0
   14.5867    4.0987   -0.2511 O   0  5  0  0  0  0
    6.8473    4.2916   -1.8567 O   0  0  0  0  0  0
    7.2610   -0.7767   -2.3768 O   0  0  0  0  0  0
   13.6877    3.1213    0.0063 N   0  3  2  0  0  0
    8.4167   -0.8551   -0.4007 N   0  0  0  0  0  0
   10.8269    2.2200   -0.4157 C   0  0  2  0  0  0
   11.9553    1.5427   -1.2102 C   0  0  2  0  0  0
   13.1044    2.6101   -1.3436 C   0  0  1  0  0  0
    9.5547    1.3581   -0.1316 C   0  0  2  0  0  0
   11.3597    2.7432    0.9484 C   0  0  0  0  0  0
   10.2918    3.3374   -1.2432 C   0  0  0  0  0  0
   12.1546    0.1019   -0.6767 C   0  0  0  0  0  0
   12.5583    3.7040    0.8531 C   0  0  0  0  0  0
    9.5284   -0.0026   -0.8809 C   0  0  1  0  0  0
   12.5611    3.8596   -2.1521 C   0  0  0  0  0  0
   10.8887   -0.7763   -0.8813 C   0  0  0  0  0  0
   14.4198    2.0054    0.7648 C   0  0  0  0  0  0
   11.0671    4.2162   -2.0188 C   0  0  0  0  0  0
   15.2447    2.5309    1.9362 C   0  0  0  0  0  0
    8.9146    3.2681   -1.1807 C   0  0  0  0  0  0
   14.7308    2.4612    3.3584 C   0  0  0  0  0  0
   15.8423    1.5460    2.9164 C   0  0  0  0  0  0
   10.3417    5.2072   -2.7130 C   0  0  0  0  0  0
    8.2116    4.2729   -1.8782 C   0  0  0  0  0  0
    8.9267    5.2486   -2.6206 C   0  0  0  0  0  0
    8.5138   -1.3178    0.9970 C   0  0  0  0  0  0
    7.3645   -1.1587   -1.2112 C   0  0  0  0  0  0
    6.3036   -1.9828   -0.6605 C   0  0  0  0  0  0
    5.3778   -2.6435   -0.2153 C   0  0  0  0  0  0
    4.2841   -3.4291    0.3300 C   0  0  0  0  0  0
    4.3123   -3.8391    1.6784 C   0  0  0  0  0  0
    3.1903   -3.7815   -0.4863 C   0  0  0  0  0  0
    3.2515   -4.6006    2.2069 C   0  0  0  0  0  0
    2.1304   -4.5431    0.0439 C   0  0  0  0  0  0
    2.1564   -4.9624    1.3921 C   0  0  0  0  0  0
    1.0067   -5.7772    1.9667 C   0  0  0  0  0  0
   13.9607    2.1909   -1.8747 H   0  0  0  0  0  0
    9.4775    1.1729    0.9392 H   0  0  0  0  0  0
   11.6199    1.9059    1.5945 H   0  0  0  0  0  0
   10.5570    3.2619    1.4746 H   0  0  0  0  0  0
   13.0241   -0.3720   -1.1339 H   0  0  0  0  0  0
   12.3217    0.0854    0.3932 H   0  0  0  0  0  0
   12.2662    4.6496    0.3965 H   0  0  0  0  0  0
   12.9627    3.9491    1.8343 H   0  0  0  0  0  0
    9.3618    0.2669   -1.9240 H   0  0  0  0  0  0
   13.1401    4.7673   -1.9896 H   0  0  0  0  0  0
   12.7088    3.6474   -3.2114 H   0  0  0  0  0  0
   10.9719   -1.3022   -1.8333 H   0  0  0  0  0  0
   10.9065   -1.5680   -0.1331 H   0  0  0  0  0  0
   13.7078    1.2966    1.1548 H   0  0  0  0  0  0
   15.0778    1.5071    0.0519 H   0  0  0  0  0  0
   15.9019    3.3640    1.6951 H   0  0  0  0  0  0
   11.2873    2.0856   -2.9541 H   0  0  0  0  0  0
   16.8429    1.7537    3.2903 H   0  0  0  0  0  0
   15.6022    0.4922    2.7885 H   0  0  0  0  0  0
   13.7508    2.0178    3.5242 H   0  0  0  0  0  0
   14.9879    3.2833    4.0232 H   0  0  0  0  0  0
   10.8611    5.9140   -3.3433 H   0  0  0  0  0  0
    8.3867    6.0103   -3.1636 H   0  0  0  0  0  0
    7.6827   -0.9330    1.5898 H   0  0  0  0  0  0
    8.4994   -2.4075    1.0479 H   0  0  0  0  0  0
    9.4296   -0.9942    1.4907 H   0  0  0  0  0  0
    6.4760    4.9951   -2.3661 H   0  0  0  0  0  0
    5.1445   -3.5713    2.3138 H   0  0  0  0  0  0
    3.1571   -3.4693   -1.5204 H   0  0  0  0  0  0
    3.2817   -4.9046    3.2428 H   0  0  0  0  0  0
    1.2953   -4.8025   -0.5900 H   0  0  0  0  0  0
  1 41  1  0  0  0
  2 41  1  0  0  0
  3 41  1  0  0  0
  4 14  1  0  0  0
  4 25  1  0  0  0
  5 12  1  0  0  0
  5 58  1  0  0  0
  6  9  1  0  0  0
  7 29  1  0  0  0
  7 68  1  0  0  0
  8 32  2  0  0  0
  9 13  1  0  0  0
  9 18  1  0  0  0
  9 22  1  0  0  0
 10 19  1  0  0  0
 10 31  1  0  0  0
 10 32  1  0  0  0
 11 12  1  0  0  0
 11 14  1  0  0  0
 11 15  1  0  0  0
 11 16  1  0  0  0
 12 13  1  0  0  0
 12 17  1  0  0  0
 13 20  1  0  0  0
 13 42  1  0  0  0
 14 19  1  0  0  0
 14 43  1  0  0  0
 15 18  1  0  0  0
 15 44  1  0  0  0
 15 45  1  0  0  0
 16 23  2  0  0  0
 16 25  1  0  0  0
 17 21  1  0  0  0
 17 46  1  0  0  0
 17 47  1  0  0  0
 18 48  1  0  0  0
 18 49  1  0  0  0
 19 21  1  0  0  0
 19 50  1  0  0  0
 20 23  1  0  0  0
 20 51  1  0  0  0
 20 52  1  0  0  0
 21 53  1  0  0  0
 21 54  1  0  0  0
 22 24  1  0  0  0
 22 55  1  0  0  0
 22 56  1  0  0  0
 23 28  1  0  0  0
 24 26  1  0  0  0
 24 27  1  0  0  0
 24 57  1  0  0  0
 25 29  2  0  0  0
 26 27  1  0  0  0
 26 61  1  0  0  0
 26 62  1  0  0  0
 27 59  1  0  0  0
 27 60  1  0  0  0
 28 30  2  0  0  0
 28 63  1  0  0  0
 29 30  1  0  0  0
 30 64  1  0  0  0
 31 65  1  0  0  0
 31 66  1  0  0  0
 31 67  1  0  0  0
 32 33  1  0  0  0
 33 34  3  0  0  0
 34 35  1  0  0  0
 35 36  2  0  0  0
 35 37  1  0  0  0
 36 38  1  0  0  0
 36 69  1  0  0  0
 37 39  2  0  0  0
 37 70  1  0  0  0
 38 40  2  0  0  0
 38 71  1  0  0  0
 39 40  1  0  0  0
 39 72  1  0  0  0
 40 41  1  0  0  0
M  CHG  2   6  -1   9   1
M  END
> <LID>
L017895

> <PC_CID>
44214508

> <Names>


> <CAS_Numbers>


$$$$
15925380
                    3D
 Structure written by MMmdl.
 62 66  0  0  1  0            999 V2000
    8.2970   -0.2837   -0.8474 Cl  0  0  0  0  0  0
   -4.0021    1.7255    1.4616 S   0  0  0  0  0  0
    1.9056    4.6346   -0.2025 O   0  0  0  0  0  0
   -1.9759    0.0720   -0.0223 N   0  0  0  0  0  0
    2.5827    2.4757   -0.0574 N   0  0  0  0  0  0
   -1.8006   -2.1511    1.1259 C   0  0  0  0  0  0
   -1.3801   -3.6880    3.0300 C   0  0  0  0  0  0
   -0.4068   -4.2351    0.9215 C   0  0  0  0  0  0
   -0.6338   -5.0068    3.1985 C   0  0  0  0  0  0
   -0.5255   -5.5108    1.7648 C   0  0  0  0  0  0
   -1.0840   -1.0683    0.2785 C   0  0  1  0  0  0
   -0.3627   -1.6172   -0.9715 C   0  0  0  0  0  0
   -1.5178    1.3067    0.3142 C   0  0  0  0  0  0
   -3.2514   -0.1361   -0.4521 C   0  0  0  0  0  0
   -2.3471    2.1880    1.0494 C   0  0  0  0  0  0
   -4.3214    0.5363    0.1933 C   0  0  0  0  0  0
   -0.2112    1.7293   -0.0274 C   0  0  0  0  0  0
   -3.5570   -1.0167   -1.5175 C   0  0  0  0  0  0
   -1.8723    3.4517    1.4481 C   0  0  0  0  0  0
    0.2752    2.9954    0.3738 C   0  0  0  0  0  0
   -5.6571    0.2921   -0.1821 C   0  0  0  0  0  0
   -0.5684    3.8559    1.1082 C   0  0  0  0  0  0
   -4.8920   -1.2520   -1.8989 C   0  0  0  0  0  0
   -5.9438   -0.6061   -1.2253 C   0  0  0  0  0  0
    1.6570    3.4452   -0.0064 C   0  0  0  0  0  0
    3.9806    2.6683   -0.4219 C   0  0  0  0  0  0
    4.6355    1.4028   -0.9542 C   0  0  0  0  0  0
    6.0012    1.1640   -0.6907 C   0  0  0  0  0  0
    3.9056    0.4700   -1.7262 C   0  0  0  0  0  0
    6.6282    0.0012   -1.1800 C   0  0  0  0  0  0
    4.5327   -0.6925   -2.2151 C   0  0  0  0  0  0
    5.8934   -0.9283   -1.9409 C   0  0  0  0  0  0
   -2.5533   -2.6911    0.5499 H   0  0  0  0  0  0
   -2.3428   -1.6368    1.9219 H   0  0  0  0  0  0
   -1.2363   -3.0131    3.8744 H   0  0  0  0  0  0
   -2.4494   -3.8871    2.9351 H   0  0  0  0  0  0
    0.6321   -4.0601    0.6411 H   0  0  0  0  0  0
   -0.9860   -4.3316    0.0023 H   0  0  0  0  0  0
    0.3611   -4.8251    3.6077 H   0  0  0  0  0  0
   -1.1491   -5.7060    3.8578 H   0  0  0  0  0  0
   -1.4382   -6.0447    1.4961 H   0  0  0  0  0  0
    0.3129   -6.1930    1.6196 H   0  0  0  0  0  0
   -0.2979   -0.6808    0.9287 H   0  0  0  0  0  0
   -0.1241   -0.8292   -1.6856 H   0  0  0  0  0  0
    0.5808   -2.0867   -0.6949 H   0  0  0  0  0  0
   -0.9464   -2.3733   -1.4930 H   0  0  0  0  0  0
    0.4249    1.0770   -0.6058 H   0  0  0  0  0  0
   -2.7817   -1.5181   -2.0698 H   0  0  0  0  0  0
   -2.5117    4.1191    2.0072 H   0  0  0  0  0  0
   -6.4639    0.8054    0.3203 H   0  0  0  0  0  0
   -0.2208    4.8320    1.4154 H   0  0  0  0  0  0
   -5.1087   -1.9291   -2.7121 H   0  0  0  0  0  0
   -6.9676   -0.7876   -1.5179 H   0  0  0  0  0  0
    2.2944    1.5329    0.1575 H   0  0  0  0  0  0
    4.0709    3.4406   -1.1876 H   0  0  0  0  0  0
    4.5215    3.0243    0.4560 H   0  0  0  0  0  0
    6.5730    1.8730   -0.1097 H   0  0  0  0  0  0
    2.8635    0.6402   -1.9544 H   0  0  0  0  0  0
    3.9704   -1.4022   -2.8039 H   0  0  0  0  0  0
    6.3730   -1.8198   -2.3175 H   0  0  0  0  0  0
   -0.8654   -3.1068    1.7714 N   0  3  0  0  0  0
   -0.0386   -2.5877    2.0308 H   0  0  0  0  0  0
  1 30  1  0  0  0
  2 15  1  0  0  0
  2 16  1  0  0  0
  3 25  2  0  0  0
  4 11  1  0  0  0
  4 13  1  0  0  0
  4 14  1  0  0  0
  5 25  1  0  0  0
  5 26  1  0  0  0
  5 54  1  0  0  0
  6 11  1  0  0  0
  6 33  1  0  0  0
  6 34  1  0  0  0
  6 61  1  0  0  0
  7  9  1  0  0  0
  7 35  1  0  0  0
  7 36  1  0  0  0
  7 61  1  0  0  0
  8 10  1  0  0  0
  8 37  1  0  0  0
  8 38  1  0  0  0
  8 61  1  0  0  0
  9 10  1  0  0  0
  9 39  1  0  0  0
  9 40  1  0  0  0
 10 41  1  0  0  0
 10 42  1  0  0  0
 11 12  1  0  0  0
 11 43  1  0  0  0
 12 44  1  0  0  0
 12 45  1  0  0  0
 12 46  1  0  0  0
 13 15  2  0  0  0
 13 17  1  0  0  0
 14 16  1  0  0  0
 14 18  2  0  0  0
 15 19  1  0  0  0
 16 21  2  0  0  0
 17 20  2  0  0  0
 17 47  1  0  0  0
 18 23  1  0  0  0
 18 48  1  0  0  0
 19 22  2  0  0  0
 19 49  1  0  0  0
 20 22  1  0  0  0
 20 25  1  0  0  0
 21 24  1  0  0  0
 21 50  1  0  0  0
 22 51  1  0  0  0
 23 24  2  0  0  0
 23 52  1  0  0  0
 24 53  1  0  0  0
 26 27  1  0  0  0
 26 55  1  0  0  0
 26 56  1  0  0  0
 27 28  2  0  0  0
 27 29  1  0  0  0
 28 30  1  0  0  0
 28 57  1  0  0  0
 29 31  2  0  0  0
 29 58  1  0  0  0
 30 32  2  0  0  0
 31 32  1  0  0  0
 31 59  1  0  0  0
 32 60  1  0  0  0
 61 62  1  0  0  0
M  CHG  1  61   1
M  END
> <LID>
L003540

> <PC_CID>
15925380

> <Names>


> <CAS_Numbers>


$$$$
44215691
                    3D
 Structure written by MMmdl.
 68 74  0  0  1  0            999 V2000
   -0.4789    0.6942   -0.2254 O   0  0  0  0  0  0
    3.6185    1.4494    1.3599 O   0  0  0  0  0  0
    3.1429    3.6587   -0.1939 O   0  0  0  0  0  0
    6.4365    0.5418    1.1372 O   0  0  0  0  0  0
    1.7926    0.2661    0.4062 C   0  0  1  0  0  0
    0.7713    0.2268   -0.7572 C   0  0  1  0  0  0
    0.6667   -1.2707   -1.1718 C   0  0  1  0  0  0
    2.2744    1.6731    0.8838 C   0  0  2  0  0  0
    1.2119   -0.5399    1.5993 C   0  0  0  0  0  0
    3.1032   -0.3435    0.0091 C   0  0  0  0  0  0
    1.2192    1.1728   -1.8981 C   0  0  0  0  0  0
    2.0339   -1.8715   -1.6268 C   0  0  0  0  0  0
    0.8512   -1.9880    1.2137 C   0  0  0  0  0  0
    3.2851   -1.4170   -0.8739 C   0  0  0  0  0  0
    1.3466    2.6215   -1.3989 C   0  0  0  0  0  0
   -0.4040   -3.3989   -0.4034 C   0  0  0  0  0  0
    2.3370    2.7312   -0.2388 C   0  0  0  0  0  0
    4.0882    0.3636    0.6715 C   0  0  0  0  0  0
   -1.5102   -3.8886    0.5122 C   0  0  0  0  0  0
   -1.9795   -5.3230    0.4237 C   0  0  0  0  0  0
   -1.2264   -4.8537    1.6420 C   0  0  0  0  0  0
    4.6164   -1.8561   -1.0346 C   0  0  0  0  0  0
    5.4099   -0.0974    0.5072 C   0  0  0  0  0  0
   -1.6262    0.7336   -1.0694 C   0  0  0  0  0  0
    5.6670   -1.2116   -0.3319 C   0  0  0  0  0  0
   -2.8214    1.1668   -0.2145 C   0  0  0  0  0  0
   -4.1265    1.2422   -1.0196 C   0  0  0  0  0  0
   -5.3045    1.6621   -0.1614 C   0  0  0  0  0  0
   -5.6198    3.0290   -0.0105 C   0  0  0  0  0  0
   -6.0869    0.6882    0.4943 C   0  0  0  0  0  0
   -6.7116    3.4190    0.7895 C   0  0  0  0  0  0
   -7.1787    1.0789    1.2941 C   0  0  0  0  0  0
   -7.4914    2.4442    1.4416 C   0  0  0  0  0  0
   -0.0112   -1.3560   -2.0209 H   0  0  0  0  0  0
    1.6392    2.0598    1.6810 H   0  0  0  0  0  0
    0.3231   -0.0418    1.9885 H   0  0  0  0  0  0
    1.9188   -0.5564    2.4300 H   0  0  0  0  0  0
    0.5291    1.1279   -2.7397 H   0  0  0  0  0  0
    2.1790    0.8573   -2.3080 H   0  0  0  0  0  0
    2.1971   -1.5851   -2.6663 H   0  0  0  0  0  0
    2.0074   -2.9605   -1.6373 H   0  0  0  0  0  0
    1.7525   -2.5914    1.1010 H   0  0  0  0  0  0
    0.2870   -2.4391    2.0299 H   0  0  0  0  0  0
    0.3791    3.0005   -1.0695 H   0  0  0  0  0  0
    1.6788    3.2669   -2.2125 H   0  0  0  0  0  0
    0.4283   -4.1039   -0.3947 H   0  0  0  0  0  0
   -0.8042   -3.3934   -1.4179 H   0  0  0  0  0  0
   -2.2998   -3.1581    0.6807 H   0  0  0  0  0  0
   -1.4577   -5.9880   -0.2619 H   0  0  0  0  0  0
   -3.0457   -5.5111    0.5338 H   0  0  0  0  0  0
   -1.7900   -4.7259    2.5641 H   0  0  0  0  0  0
   -0.2042   -5.2060    1.7666 H   0  0  0  0  0  0
    4.8396   -2.6708   -1.7077 H   0  0  0  0  0  0
   -1.4905    1.4430   -1.8851 H   0  0  0  0  0  0
   -1.8350   -0.2423   -1.5055 H   0  0  0  0  0  0
    6.6824   -1.5556   -0.4646 H   0  0  0  0  0  0
   -2.9440    0.4667    0.6129 H   0  0  0  0  0  0
   -2.6114    2.1397    0.2320 H   0  0  0  0  0  0
    6.1424    1.2817    1.6469 H   0  0  0  0  0  0
   -4.0173    1.9479   -1.8442 H   0  0  0  0  0  0
   -4.3437    0.2738   -1.4722 H   0  0  0  0  0  0
   -5.0247    3.7820   -0.5064 H   0  0  0  0  0  0
   -5.8517   -0.3606    0.3868 H   0  0  0  0  0  0
   -6.9508    4.4661    0.9032 H   0  0  0  0  0  0
   -7.7761    0.3313    1.7947 H   0  0  0  0  0  0
   -8.3285    2.7435    2.0550 H   0  0  0  0  0  0
    0.0522   -2.0337   -0.0400 N   0  3  2  0  0  0
   -0.7948   -1.5223    0.1663 H   0  0  0  0  0  0
  1  6  1  0  0  0
  1 24  1  0  0  0
  2  8  1  0  0  0
  2 18  1  0  0  0
  3 17  2  0  0  0
  4 23  1  0  0  0
  4 59  1  0  0  0
  5  6  1  0  0  0
  5  8  1  0  0  0
  5  9  1  0  0  0
  5 10  1  0  0  0
  6  7  1  0  0  0
  6 11  1  0  0  0
  7 12  1  0  0  0
  7 34  1  0  0  0
  7 67  1  0  0  0
  8 17  1  0  0  0
  8 35  1  0  0  0
  9 13  1  0  0  0
  9 36  1  0  0  0
  9 37  1  0  0  0
 10 14  2  0  0  0
 10 18  1  0  0  0
 11 15  1  0  0  0
 11 38  1  0  0  0
 11 39  1  0  0  0
 12 14  1  0  0  0
 12 40  1  0  0  0
 12 41  1  0  0  0
 13 42  1  0  0  0
 13 43  1  0  0  0
 13 67  1  0  0  0
 14 22  1  0  0  0
 15 17  1  0  0  0
 15 44  1  0  0  0
 15 45  1  0  0  0
 16 19  1  0  0  0
 16 46  1  0  0  0
 16 47  1  0  0  0
 16 67  1  0  0  0
 18 23  2  0  0  0
 19 20  1  0  0  0
 19 21  1  0  0  0
 19 48  1  0  0  0
 20 21  1  0  0  0
 20 49  1  0  0  0
 20 50  1  0  0  0
 21 51  1  0  0  0
 21 52  1  0  0  0
 22 25  2  0  0  0
 22 53  1  0  0  0
 23 25  1  0  0  0
 24 26  1  0  0  0
 24 54  1  0  0  0
 24 55  1  0  0  0
 25 56  1  0  0  0
 26 27  1  0  0  0
 26 57  1  0  0  0
 26 58  1  0  0  0
 27 28  1  0  0  0
 27 60  1  0  0  0
 27 61  1  0  0  0
 28 29  2  0  0  0
 28 30  1  0  0  0
 29 31  1  0  0  0
 29 62  1  0  0  0
 30 32  2  0  0  0
 30 63  1  0  0  0
 31 33  2  0  0  0
 31 64  1  0  0  0
 32 33  1  0  0  0
 32 65  1  0  0  0
 33 66  1  0  0  0
 67 68  1  0  0  0
M  CHG  1  67   1
M  END
> <LID>
L022104

> <PC_CID>
44215691

> <Names>


> <CAS_Numbers>


$$$$
23128269
                    3D
 Structure written by MMmdl.
 54 57  0  0  1  0            999 V2000
    0.1287   -0.6681   -0.5458 O   0  0  0  0  0  0
   -1.1391    1.2174   -0.7507 N   0  0  0  0  0  0
   -2.4450    0.7017   -0.2554 C   0  0  1  0  0  0
   -2.6548   -0.8368   -0.2867 C   0  0  0  0  0  0
   -2.6848    1.2989    1.1514 C   0  0  0  0  0  0
   -2.6634    2.8374    1.1172 C   0  0  0  0  0  0
   -1.2209    2.6759   -0.9595 C   0  0  0  0  0  0
   -4.2148   -2.6922    0.2881 C   0  0  0  0  0  0
   -5.0642   -0.8449   -0.9670 C   0  0  0  0  0  0
   -1.4142    3.3726    0.3987 C   0  0  0  0  0  0
   -5.4638   -3.1422   -0.4802 C   0  0  0  0  0  0
   -6.2013   -1.8467   -0.7973 C   0  0  0  0  0  0
    0.0408    0.5347   -0.7912 C   0  0  0  0  0  0
    1.3365    1.2959   -1.1478 C   0  0  0  0  0  0
    2.5965    0.4467   -0.9791 C   0  0  0  0  0  0
    3.2038    0.2259    0.2886 C   0  0  0  0  0  0
    3.1715   -0.1274   -2.1342 C   0  0  0  0  0  0
    4.3814   -0.5663    0.3689 C   0  0  0  0  0  0
    2.6679    0.7682    1.4826 C   0  0  0  0  0  0
    4.3356   -0.9107   -2.0450 C   0  0  0  0  0  0
    4.9408   -1.1291   -0.7956 C   0  0  0  0  0  0
    5.0014   -0.7988    1.6143 C   0  0  0  0  0  0
    3.2908    0.5316    2.7228 C   0  0  0  0  0  0
    4.4576   -0.2502    2.7897 C   0  0  0  0  0  0
   -3.2005    1.1163   -0.9237 H   0  0  0  0  0  0
   -2.3788   -1.2471   -1.2596 H   0  0  0  0  0  0
   -2.0143   -1.3064    0.4608 H   0  0  0  0  0  0
   -1.9179    0.9369    1.8380 H   0  0  0  0  0  0
   -3.6411    0.9694    1.5574 H   0  0  0  0  0  0
   -3.5530    3.1941    0.5964 H   0  0  0  0  0  0
   -2.7181    3.2395    2.1293 H   0  0  0  0  0  0
   -2.0700    2.9002   -1.6068 H   0  0  0  0  0  0
   -0.3708    3.1063   -1.4855 H   0  0  0  0  0  0
   -4.3420   -2.8423    1.3607 H   0  0  0  0  0  0
   -3.3448   -3.2725   -0.0240 H   0  0  0  0  0  0
   -4.6505   -0.9296   -1.9735 H   0  0  0  0  0  0
   -5.3957    0.1839   -0.8228 H   0  0  0  0  0  0
   -0.5340    3.2075    1.0216 H   0  0  0  0  0  0
   -1.4976    4.4510    0.2604 H   0  0  0  0  0  0
   -5.1664   -3.6290   -1.4102 H   0  0  0  0  0  0
   -6.0747   -3.8482    0.0832 H   0  0  0  0  0  0
   -6.8357   -1.9235   -1.6809 H   0  0  0  0  0  0
   -6.8299   -1.5592    0.0468 H   0  0  0  0  0  0
    1.2687    1.6286   -2.1843 H   0  0  0  0  0  0
    1.4381    2.1961   -0.5421 H   0  0  0  0  0  0
    2.7180    0.0311   -3.1017 H   0  0  0  0  0  0
    1.7709    1.3677    1.4750 H   0  0  0  0  0  0
    4.7650   -1.3441   -2.9363 H   0  0  0  0  0  0
    5.8354   -1.7319   -0.7360 H   0  0  0  0  0  0
    5.8969   -1.4003    1.6741 H   0  0  0  0  0  0
    2.8709    0.9507    3.6253 H   0  0  0  0  0  0
    4.9343   -0.4307    3.7419 H   0  0  0  0  0  0
   -4.0470   -1.2407    0.0317 N   0  3  0  0  0  0
   -4.3000   -0.7814    0.8950 H   0  0  0  0  0  0
  1 13  2  0  0  0
  2  3  1  0  0  0
  2  7  1  0  0  0
  2 13  1  0  0  0
  3  4  1  0  0  0
  3  5  1  0  0  0
  3 25  1  0  0  0
  4 26  1  0  0  0
  4 27  1  0  0  0
  4 53  1  0  0  0
  5  6  1  0  0  0
  5 28  1  0  0  0
  5 29  1  0  0  0
  6 10  1  0  0  0
  6 30  1  0  0  0
  6 31  1  0  0  0
  7 10  1  0  0  0
  7 32  1  0  0  0
  7 33  1  0  0  0
  8 11  1  0  0  0
  8 34  1  0  0  0
  8 35  1  0  0  0
  8 53  1  0  0  0
  9 12  1  0  0  0
  9 36  1  0  0  0
  9 37  1  0  0  0
  9 53  1  0  0  0
 10 38  1  0  0  0
 10 39  1  0  0  0
 11 12  1  0  0  0
 11 40  1  0  0  0
 11 41  1  0  0  0
 12 42  1  0  0  0
 12 43  1  0  0  0
 13 14  1  0  0  0
 14 15  1  0  0  0
 14 44  1  0  0  0
 14 45  1  0  0  0
 15 16  1  0  0  0
 15 17  2  0  0  0
 16 18  1  0  0  0
 16 19  2  0  0  0
 17 20  1  0  0  0
 17 46  1  0  0  0
 18 21  1  0  0  0
 18 22  2  0  0  0
 19 23  1  0  0  0
 19 47  1  0  0  0
 20 21  2  0  0  0
 20 48  1  0  0  0
 21 49  1  0  0  0
 22 24  1  0  0  0
 22 50  1  0  0  0
 23 24  2  0  0  0
 23 51  1  0  0  0
 24 52  1  0  0  0
 53 54  1  0  0  0
M  CHG  1  53   1
M  END
> <LID>
L003143

> <PC_CID>
23128269

> <Names>


> <CAS_Numbers>


$$$$
19822668
                    3D
 Structure written by MMmdl.
 61 64  0  0  1  0            999 V2000
   -2.2516    2.0622    1.9821 S   0  0  0  0  0  0
    4.1669    2.8156   -0.0910 O   0  0  0  0  0  0
   -1.3074    0.3907   -0.3266 N   0  0  0  0  0  0
    3.8342    0.6646   -0.7333 N   0  0  0  0  0  0
   -2.0698   -1.9509    0.1599 C   0  0  0  0  0  0
   -0.5130   -3.6897    1.0716 C   0  0  0  0  0  0
   -2.7543   -4.3086    0.5343 C   0  0  0  0  0  0
   -0.8583   -4.9907    1.8090 C   0  0  0  0  0  0
   -2.0521   -5.5603    1.0494 C   0  0  0  0  0  0
   -1.0136   -1.0447   -0.5182 C   0  0  1  0  0  0
   -0.7516   -1.4328   -1.9882 C   0  0  0  0  0  0
   -0.3193    1.1403    0.2270 C   0  0  0  0  0  0
   -2.5675    0.8739   -0.5028 C   0  0  0  0  0  0
   -0.6036    1.9524    1.3513 C   0  0  0  0  0  0
   -3.1695    1.6345    0.5324 C   0  0  0  0  0  0
    1.0033    1.1065   -0.2748 C   0  0  0  0  0  0
   -3.3111    0.6348   -1.6828 C   0  0  0  0  0  0
    2.0354    1.8502    0.3440 C   0  0  0  0  0  0
    0.4173    2.6973    1.9704 C   0  0  0  0  0  0
   -4.4968    2.0908    0.4118 C   0  0  0  0  0  0
    1.7299    2.6497    1.4665 C   0  0  0  0  0  0
   -4.6342    1.1009   -1.8068 C   0  0  0  0  0  0
   -5.2321    1.8193   -0.7559 C   0  0  0  0  0  0
    3.4359    1.8310   -0.1992 C   0  0  0  0  0  0
    6.0260   -0.4644   -0.3476 C   0  0  0  0  0  0
    5.1562    0.3930   -1.2908 C   0  0  0  0  0  0
    7.3419   -0.8584   -1.0348 C   0  0  0  0  0  0
    6.3082    0.2281    0.9973 C   0  0  0  0  0  0
   -3.0177   -1.8756   -0.3745 H   0  0  0  0  0  0
   -2.2614   -1.6146    1.1806 H   0  0  0  0  0  0
    0.3795   -3.8108    0.4568 H   0  0  0  0  0  0
   -0.3142   -2.8907    1.7877 H   0  0  0  0  0  0
   -3.3687   -3.8807    1.3287 H   0  0  0  0  0  0
   -3.3998   -4.5104   -0.3212 H   0  0  0  0  0  0
   -0.0786   -1.2381    0.0092 H   0  0  0  0  0  0
   -0.0191   -5.6856    1.8530 H   0  0  0  0  0  0
   -1.1534   -4.7630    2.8343 H   0  0  0  0  0  0
   -2.6953   -6.1826    1.6726 H   0  0  0  0  0  0
   -1.7058   -6.1658    0.2105 H   0  0  0  0  0  0
   -0.1783   -0.6706   -2.5156 H   0  0  0  0  0  0
   -0.1784   -2.3585   -2.0412 H   0  0  0  0  0  0
   -1.6702   -1.6102   -2.5442 H   0  0  0  0  0  0
    1.2263    0.5070   -1.1443 H   0  0  0  0  0  0
   -2.8825    0.1066   -2.5166 H   0  0  0  0  0  0
    0.1937    3.3163    2.8269 H   0  0  0  0  0  0
   -4.9478    2.6640    1.2086 H   0  0  0  0  0  0
    2.5013    3.2334    1.9484 H   0  0  0  0  0  0
   -5.1908    0.9082   -2.7122 H   0  0  0  0  0  0
   -6.2472    2.1758   -0.8518 H   0  0  0  0  0  0
    5.4829   -1.3865   -0.1358 H   0  0  0  0  0  0
    5.0069   -0.1364   -2.2324 H   0  0  0  0  0  0
    5.6740    1.3193   -1.5464 H   0  0  0  0  0  0
    3.1710   -0.0959   -0.7475 H   0  0  0  0  0  0
    7.9414   -1.5073   -0.3957 H   0  0  0  0  0  0
    7.1554   -1.3971   -1.9643 H   0  0  0  0  0  0
    7.9425    0.0198   -1.2739 H   0  0  0  0  0  0
    6.9483   -0.3880    1.6293 H   0  0  0  0  0  0
    6.8085    1.1860    0.8511 H   0  0  0  0  0  0
    5.3904    0.4135    1.5550 H   0  0  0  0  0  0
   -1.6631   -3.3758    0.1881 N   0  3  0  0  0  0
   -1.3772   -3.6234   -0.7486 H   0  0  0  0  0  0
  1 14  1  0  0  0
  1 15  1  0  0  0
  2 24  2  0  0  0
  3 10  1  0  0  0
  3 12  1  0  0  0
  3 13  1  0  0  0
  4 24  1  0  0  0
  4 26  1  0  0  0
  4 53  1  0  0  0
  5 10  1  0  0  0
  5 29  1  0  0  0
  5 30  1  0  0  0
  5 60  1  0  0  0
  6  8  1  0  0  0
  6 31  1  0  0  0
  6 32  1  0  0  0
  6 60  1  0  0  0
  7  9  1  0  0  0
  7 33  1  0  0  0
  7 34  1  0  0  0
  7 60  1  0  0  0
  8  9  1  0  0  0
  8 36  1  0  0  0
  8 37  1  0  0  0
  9 38  1  0  0  0
  9 39  1  0  0  0
 10 11  1  0  0  0
 10 35  1  0  0  0
 11 40  1  0  0  0
 11 41  1  0  0  0
 11 42  1  0  0  0
 12 14  2  0  0  0
 12 16  1  0  0  0
 13 15  1  0  0  0
 13 17  2  0  0  0
 14 19  1  0  0  0
 15 20  2  0  0  0
 16 18  2  0  0  0
 16 43  1  0  0  0
 17 22  1  0  0  0
 17 44  1  0  0  0
 18 21  1  0  0  0
 18 24  1  0  0  0
 19 21  2  0  0  0
 19 45  1  0  0  0
 20 23  1  0  0  0
 20 46  1  0  0  0
 21 47  1  0  0  0
 22 23  2  0  0  0
 22 48  1  0  0  0
 23 49  1  0  0  0
 25 26  1  0  0  0
 25 27  1  0  0  0
 25 28  1  0  0  0
 25 50  1  0  0  0
 26 51  1  0  0  0
 26 52  1  0  0  0
 27 54  1  0  0  0
 27 55  1  0  0  0
 27 56  1  0  0  0
 28 57  1  0  0  0
 28 58  1  0  0  0
 28 59  1  0  0  0
 60 61  1  0  0  0
M  CHG  1  60   1
M  END
> <LID>
L003535

> <PC_CID>
19822668

> <Names>


> <CAS_Numbers>


$$$$
22992915
                    3D
 Structure written by MMmdl.
 60 62  0  0  1  0            999 V2000
   -4.8550   -2.3438   -2.7590 O   0  0  0  0  0  0
    5.6064    0.6109    0.8825 O   0  0  0  0  0  0
   -0.6149   -0.6161    1.9093 N   0  0  0  0  0  0
    4.9208    0.2121   -1.2423 N   0  0  0  0  0  0
   -4.0515   -2.2496   -0.4511 C   0  0  0  0  0  0
   -4.9823   -0.1064    0.1272 C   0  0  0  0  0  0
   -5.1658   -1.9265   -1.4463 C   0  0  1  0  0  0
   -5.2778   -0.4061   -1.3473 C   0  0  0  0  0  0
   -3.1147   -1.0335    1.5829 C   0  0  0  0  0  0
   -1.7330   -0.6813    0.9451 C   0  0  1  0  0  0
   -1.7893    0.5690    0.0713 C   0  0  0  0  0  0
    0.6586   -0.4071    1.4778 C   0  0  0  0  0  0
   -0.9292   -0.5300    3.3378 C   0  0  0  0  0  0
   -1.9249    1.8468    0.6585 C   0  0  0  0  0  0
   -1.6885    0.4592   -1.3326 C   0  0  0  0  0  0
    1.5071    0.5161    2.1346 C   0  0  0  0  0  0
    1.1648   -1.0952    0.3494 C   0  0  0  0  0  0
   -1.9756    2.9985   -0.1499 C   0  0  0  0  0  0
   -1.7400    1.6113   -2.1406 C   0  0  0  0  0  0
   -1.8857    2.8808   -1.5499 C   0  0  0  0  0  0
    2.8191    0.7445    1.6778 C   0  0  0  0  0  0
    2.4769   -0.8683   -0.1086 C   0  0  0  0  0  0
    3.3137    0.0628    0.5461 C   0  0  0  0  0  0
    4.7228    0.3016    0.0828 C   0  0  0  0  0  0
    6.1952    0.4309   -1.9162 C   0  0  0  0  0  0
    7.0873   -0.8194   -1.8571 C   0  0  0  0  0  0
    8.4200   -0.6231   -2.5877 C   0  0  0  0  0  0
   -4.0870   -3.2809   -0.0988 H   0  0  0  0  0  0
   -3.0909   -2.0958   -0.9383 H   0  0  0  0  0  0
   -5.9120   -0.0078    0.6884 H   0  0  0  0  0  0
   -4.4427    0.8315    0.2417 H   0  0  0  0  0  0
   -6.1009   -2.3880   -1.1251 H   0  0  0  0  0  0
   -4.5178    0.0671   -1.9708 H   0  0  0  0  0  0
   -6.2494   -0.0308   -1.6700 H   0  0  0  0  0  0
   -3.4232   -0.2615    2.2892 H   0  0  0  0  0  0
   -3.0082   -1.9539    2.1575 H   0  0  0  0  0  0
   -1.4835   -1.5161    0.2949 H   0  0  0  0  0  0
   -4.8310   -3.2887   -2.7837 H   0  0  0  0  0  0
   -0.0305   -0.5634    3.9541 H   0  0  0  0  0  0
   -1.4559    0.3978    3.5620 H   0  0  0  0  0  0
   -1.5426   -1.3684    3.6648 H   0  0  0  0  0  0
   -1.9928    1.9468    1.7317 H   0  0  0  0  0  0
   -1.5699   -0.5076   -1.7987 H   0  0  0  0  0  0
    1.1582    1.0770    2.9890 H   0  0  0  0  0  0
    0.5617   -1.8200   -0.1754 H   0  0  0  0  0  0
   -2.0821    3.9727    0.3042 H   0  0  0  0  0  0
   -1.6654    1.5210   -3.2143 H   0  0  0  0  0  0
   -1.9240    3.7643   -2.1701 H   0  0  0  0  0  0
    3.4417    1.4567    2.2004 H   0  0  0  0  0  0
    2.8327   -1.4243   -0.9638 H   0  0  0  0  0  0
    4.1284   -0.0173   -1.8240 H   0  0  0  0  0  0
    5.9879    0.6903   -2.9548 H   0  0  0  0  0  0
    6.7089    1.2891   -1.4791 H   0  0  0  0  0  0
    7.2873   -1.0830   -0.8178 H   0  0  0  0  0  0
    6.5597   -1.6679   -2.2945 H   0  0  0  0  0  0
    9.0311   -1.5241   -2.5296 H   0  0  0  0  0  0
    8.2618   -0.3958   -3.6422 H   0  0  0  0  0  0
    8.9919    0.1953   -2.1496 H   0  0  0  0  0  0
   -4.2534   -1.2857    0.6541 N   0  3  2  0  0  0
   -4.9470   -1.7317    1.2376 H   0  0  0  0  0  0
  1  7  1  0  0  0
  1 38  1  0  0  0
  2 24  2  0  0  0
  3 10  1  0  0  0
  3 12  1  0  0  0
  3 13  1  0  0  0
  4 24  1  0  0  0
  4 25  1  0  0  0
  4 51  1  0  0  0
  5  7  1  0  0  0
  5 28  1  0  0  0
  5 29  1  0  0  0
  5 59  1  0  0  0
  6  8  1  0  0  0
  6 30  1  0  0  0
  6 31  1  0  0  0
  6 59  1  0  0  0
  7  8  1  0  0  0
  7 32  1  0  0  0
  8 33  1  0  0  0
  8 34  1  0  0  0
  9 10  1  0  0  0
  9 35  1  0  0  0
  9 36  1  0  0  0
  9 59  1  0  0  0
 10 11  1  0  0  0
 10 37  1  0  0  0
 11 14  2  0  0  0
 11 15  1  0  0  0
 12 16  2  0  0  0
 12 17  1  0  0  0
 13 39  1  0  0  0
 13 40  1  0  0  0
 13 41  1  0  0  0
 14 18  1  0  0  0
 14 42  1  0  0  0
 15 19  2  0  0  0
 15 43  1  0  0  0
 16 21  1  0  0  0
 16 44  1  0  0  0
 17 22  2  0  0  0
 17 45  1  0  0  0
 18 20  2  0  0  0
 18 46  1  0  0  0
 19 20  1  0  0  0
 19 47  1  0  0  0
 20 48  1  0  0  0
 21 23  2  0  0  0
 21 49  1  0  0  0
 22 23  1  0  0  0
 22 50  1  0  0  0
 23 24  1  0  0  0
 25 26  1  0  0  0
 25 52  1  0  0  0
 25 53  1  0  0  0
 26 27  1  0  0  0
 26 54  1  0  0  0
 26 55  1  0  0  0
 27 56  1  0  0  0
 27 57  1  0  0  0
 27 58  1  0  0  0
 59 60  1  0  0  0
M  CHG  1  59   1
M  END
> <LID>
L017850

> <PC_CID>
22992915

> <Names>


> <CAS_Numbers>


$$$$
19788041
                    3D
 Structure written by MMmdl.
 56 60  0  0  1  0            999 V2000
    4.7088   -3.3113   -1.8061 Cl  0  0  0  0  0  0
   -0.0847    1.1038    0.2625 N   0  0  0  0  0  0
   -1.5030    1.0969    0.6531 C   0  0  1  0  0  0
   -1.9505    2.4798    1.1964 C   0  0  2  0  0  0
   -2.4204    0.5827   -0.4888 C   0  0  2  0  0  0
   -3.4466    2.4780    1.5688 C   0  0  0  0  0  0
   -3.9039    0.5763   -0.0460 C   0  0  0  0  0  0
   -1.5704    3.6227    0.2350 C   0  0  0  0  0  0
   -4.3418    1.9698    0.4273 C   0  0  0  0  0  0
   -0.0714    3.5620   -0.0827 C   0  0  0  0  0  0
    0.3159    2.1848   -0.6415 C   0  0  0  0  0  0
   -2.4510   -1.1242   -2.3439 C   0  0  0  0  0  0
   -2.0021   -1.9026   -0.1145 C   0  0  0  0  0  0
   -2.2712   -2.6388   -2.3955 C   0  0  0  0  0  0
   -2.5481   -3.0610   -0.9561 C   0  0  0  0  0  0
    0.8443    0.3663    0.9174 C   0  0  0  0  0  0
    1.7536   -0.4948    0.2367 C   0  0  0  0  0  0
    0.9194    0.4483    2.3273 C   0  0  0  0  0  0
    2.7075   -1.2265    0.9967 C   0  0  0  0  0  0
    1.7338   -0.6707   -1.1694 C   0  0  0  0  0  0
    1.8872   -0.2993    3.0223 C   0  0  0  0  0  0
    3.6219   -2.0936    0.3663 C   0  0  0  0  0  0
    2.6476   -1.5399   -1.7968 C   0  0  0  0  0  0
    3.5922   -2.2489   -1.0318 C   0  0  0  0  0  0
   -1.6142    0.3912    1.4776 H   0  0  0  0  0  0
   -1.4006    2.6625    2.1207 H   0  0  0  0  0  0
   -2.3395    1.2817   -1.3220 H   0  0  0  0  0  0
   -3.5939    1.8392    2.4408 H   0  0  0  0  0  0
   -3.7604    3.4772    1.8729 H   0  0  0  0  0  0
   -4.0692   -0.1305    0.7661 H   0  0  0  0  0  0
   -4.5554    0.2637   -0.8610 H   0  0  0  0  0  0
   -1.8140    4.5873    0.6816 H   0  0  0  0  0  0
   -2.1416    3.5586   -0.6909 H   0  0  0  0  0  0
   -4.3169    2.6695   -0.4085 H   0  0  0  0  0  0
   -5.3790    1.9353    0.7626 H   0  0  0  0  0  0
    0.5043    3.7649    0.8214 H   0  0  0  0  0  0
    0.1910    4.3417   -0.7982 H   0  0  0  0  0  0
   -0.1512    2.0318   -1.6146 H   0  0  0  0  0  0
    1.3933    2.1569   -0.8094 H   0  0  0  0  0  0
   -3.5098   -0.8858   -2.4396 H   0  0  0  0  0  0
   -1.9201   -0.6132   -3.1477 H   0  0  0  0  0  0
   -0.9879   -2.1241    0.2195 H   0  0  0  0  0  0
   -2.6034   -1.7478    0.7798 H   0  0  0  0  0  0
   -1.2427   -2.8845   -2.6644 H   0  0  0  0  0  0
   -2.9335   -3.1209   -3.1153 H   0  0  0  0  0  0
   -3.6247   -3.1496   -0.8030 H   0  0  0  0  0  0
   -2.0953   -4.0196   -0.7008 H   0  0  0  0  0  0
    0.2520    1.0929    2.8805 H   0  0  0  0  0  0
    1.0237   -0.1453   -1.7888 H   0  0  0  0  0  0
    2.0097   -0.2814    4.0959 H   0  0  0  0  0  0
    4.3471   -2.6463    0.9461 H   0  0  0  0  0  0
    2.6249   -1.6626   -2.8702 H   0  0  0  0  0  0
   -1.9365   -0.7247   -1.0159 N   0  3  0  0  0  0
   -0.9478   -0.5815   -1.1629 H   0  0  0  0  0  0
    2.7342   -1.0959    2.3404 N   0  3  0  0  0  0
    3.4273   -1.6285    2.8667 H   0  0  0  0  0  0
  1 24  1  0  0  0
  2  3  1  0  0  0
  2 11  1  0  0  0
  2 16  1  0  0  0
  3  4  1  0  0  0
  3  5  1  0  0  0
  3 25  1  0  0  0
  4  6  1  0  0  0
  4  8  1  0  0  0
  4 26  1  0  0  0
  5  7  1  0  0  0
  5 27  1  0  0  0
  5 53  1  0  0  0
  6  9  1  0  0  0
  6 28  1  0  0  0
  6 29  1  0  0  0
  7  9  1  0  0  0
  7 30  1  0  0  0
  7 31  1  0  0  0
  8 10  1  0  0  0
  8 32  1  0  0  0
  8 33  1  0  0  0
  9 34  1  0  0  0
  9 35  1  0  0  0
 10 11  1  0  0  0
 10 36  1  0  0  0
 10 37  1  0  0  0
 11 38  1  0  0  0
 11 39  1  0  0  0
 12 14  1  0  0  0
 12 40  1  0  0  0
 12 41  1  0  0  0
 12 53  1  0  0  0
 13 15  1  0  0  0
 13 42  1  0  0  0
 13 43  1  0  0  0
 13 53  1  0  0  0
 14 15  1  0  0  0
 14 44  1  0  0  0
 14 45  1  0  0  0
 15 46  1  0  0  0
 15 47  1  0  0  0
 16 17  2  0  0  0
 16 18  1  0  0  0
 17 19  1  0  0  0
 17 20  1  0  0  0
 18 21  2  0  0  0
 18 48  1  0  0  0
 19 22  1  0  0  0
 19 55  2  0  0  0
 20 23  2  0  0  0
 20 49  1  0  0  0
 21 50  1  0  0  0
 21 55  1  0  0  0
 22 24  2  0  0  0
 22 51  1  0  0  0
 23 24  1  0  0  0
 23 52  1  0  0  0
 53 54  1  0  0  0
 55 56  1  0  0  0
M  CHG  2  53   1  55   1
M  END
> <LID>
L008490

> <PC_CID>
19788041

> <Names>


> <CAS_Numbers>


$$$$
60698
                    3D
 Structure written by MMmdl.
 53 56  0  0  1  0            999 V2000
   -2.4783    1.1148   -2.6741 O   0  0  0  0  0  0
   -4.6806   -1.0398   -1.0324 O   0  0  0  0  0  0
   -2.1758    0.4595   -0.5154 N   0  0  0  0  0  0
   -2.3714   -1.1773    1.2628 N   0  0  0  0  0  0
   -4.2745    0.4837    2.5327 N   0  0  0  0  0  0
   -0.7242    0.7583   -0.5570 C   0  0  0  0  0  0
   -0.1468    1.2763    0.7796 C   0  0  0  0  0  0
    0.0878   -0.4670   -1.0185 C   0  0  0  0  0  0
    1.3548    1.5773    0.6441 C   0  0  0  0  0  0
    1.5879   -0.1375   -1.1027 C   0  0  0  0  0  0
    3.5727    0.5986    0.1946 C   0  0  0  0  0  0
    4.3725   -0.7129    0.2874 C   0  0  0  0  0  0
   -2.7391    0.0066    0.7132 C   0  0  0  0  0  0
   -2.9189    0.5858   -1.6524 C   0  0  0  0  0  0
    5.8671   -0.4611    0.3393 C   0  0  0  0  0  0
   -4.3257    0.1118   -1.6770 C   0  0  0  0  0  0
   -3.6907    0.8322    1.3651 C   0  0  0  0  0  0
    6.5217   -0.3290    1.5823 C   0  0  0  0  0  0
    6.6089   -0.3515   -0.8559 C   0  0  0  0  0  0
   -5.4119    0.6240   -2.3347 C   0  0  0  0  0  0
   -2.9548   -1.5301    2.4292 C   0  0  0  0  0  0
    7.9091   -0.0902    1.6292 C   0  0  0  0  0  0
    7.9963   -0.1127   -0.8081 C   0  0  0  0  0  0
    8.6466    0.0178    0.4342 C   0  0  0  0  0  0
   -3.9047   -0.7023    3.0616 C   0  0  0  0  0  0
   -6.5073   -0.2377   -2.0511 C   0  0  0  0  0  0
   -6.0085   -1.2293   -1.2569 C   0  0  0  0  0  0
   -0.5479    1.5630   -1.2735 H   0  0  0  0  0  0
   -0.6757    2.1776    1.0920 H   0  0  0  0  0  0
   -0.2778    0.5448    1.5774 H   0  0  0  0  0  0
   -0.2626   -0.8059   -1.9942 H   0  0  0  0  0  0
   -0.0639   -1.3003   -0.3313 H   0  0  0  0  0  0
    1.5160    2.3944   -0.0612 H   0  0  0  0  0  0
    1.7366    1.9127    1.6094 H   0  0  0  0  0  0
    2.1261   -1.0368   -1.3997 H   0  0  0  0  0  0
    1.7632    0.6048   -1.8831 H   0  0  0  0  0  0
    3.8599    1.1670   -0.6915 H   0  0  0  0  0  0
    3.8418    1.2141    1.0545 H   0  0  0  0  0  0
    4.0744   -1.2715    1.1758 H   0  0  0  0  0  0
    4.1673   -1.3606   -0.5646 H   0  0  0  0  0  0
   -3.9878    1.7819    0.9445 H   0  0  0  0  0  0
    5.9630   -0.4092    2.5034 H   0  0  0  0  0  0
    6.1170   -0.4491   -1.8128 H   0  0  0  0  0  0
   -5.4172    1.5157   -2.9444 H   0  0  0  0  0  0
   -2.6622   -2.4760    2.8602 H   0  0  0  0  0  0
    8.4079    0.0102    2.5820 H   0  0  0  0  0  0
    8.5618   -0.0295   -1.7246 H   0  0  0  0  0  0
    9.7105    0.2008    0.4706 H   0  0  0  0  0  0
   -4.3662   -0.9916    3.9942 H   0  0  0  0  0  0
   -7.5284   -0.1476   -2.3914 H   0  0  0  0  0  0
   -6.4352   -2.1061   -0.7922 H   0  0  0  0  0  0
    2.1044    0.3742    0.1958 N   0  3  0  0  0  0
    1.9247   -0.3401    0.8873 H   0  0  0  0  0  0
  1 14  2  0  0  0
  2 16  1  0  0  0
  2 27  1  0  0  0
  3  6  1  0  0  0
  3 13  1  0  0  0
  3 14  1  0  0  0
  4 13  2  0  0  0
  4 21  1  0  0  0
  5 17  2  0  0  0
  5 25  1  0  0  0
  6  7  1  0  0  0
  6  8  1  0  0  0
  6 28  1  0  0  0
  7  9  1  0  0  0
  7 29  1  0  0  0
  7 30  1  0  0  0
  8 10  1  0  0  0
  8 31  1  0  0  0
  8 32  1  0  0  0
  9 33  1  0  0  0
  9 34  1  0  0  0
  9 52  1  0  0  0
 10 35  1  0  0  0
 10 36  1  0  0  0
 10 52  1  0  0  0
 11 12  1  0  0  0
 11 37  1  0  0  0
 11 38  1  0  0  0
 11 52  1  0  0  0
 12 15  1  0  0  0
 12 39  1  0  0  0
 12 40  1  0  0  0
 13 17  1  0  0  0
 14 16  1  0  0  0
 15 18  2  0  0  0
 15 19  1  0  0  0
 16 20  2  0  0  0
 17 41  1  0  0  0
 18 22  1  0  0  0
 18 42  1  0  0  0
 19 23  2  0  0  0
 19 43  1  0  0  0
 20 26  1  0  0  0
 20 44  1  0  0  0
 21 25  2  0  0  0
 21 45  1  0  0  0
 22 24  2  0  0  0
 22 46  1  0  0  0
 23 24  1  0  0  0
 23 47  1  0  0  0
 24 48  1  0  0  0
 25 49  1  0  0  0
 26 27  2  0  0  0
 26 50  1  0  0  0
 27 51  1  0  0  0
 52 53  1  0  0  0
M  CHG  1  52   1
M  END
> <LID>
L003834

> <PC_CID>
60698

> <Names>
A-3508 hydrochloride

> <CAS_Numbers>
117523-47-4;118142-72-6;119413-53-5

$$$$
9933302
                    3D
 Structure written by MMmdl.
 59 62  0  0  1  0            999 V2000
    6.0109    3.2712   -1.7054 Cl  0  0  0  0  0  0
    7.8007    0.6321   -1.7526 Cl  0  0  0  0  0  0
   -5.8763    1.7801    0.0333 O   0  0  0  0  0  0
    1.5031   -0.0668   -1.0006 O   0  0  0  0  0  0
   -0.0011    0.3619    0.6371 N   0  0  0  0  0  0
   -1.7687   -1.2892   -0.0197 C   0  0  1  0  0  0
   -1.1863    0.1370   -0.2242 C   0  0  1  0  0  0
   -3.1364   -1.4109   -0.7182 C   0  0  0  0  0  0
   -1.1688   -3.4595   -1.2526 C   0  0  0  0  0  0
   -0.0981   -2.9697    0.7677 C   0  0  0  0  0  0
   -4.1403   -0.4032   -0.1521 C   0  0  0  0  0  0
   -2.2134    1.2756   -0.1370 C   0  0  0  0  0  0
   -1.5727   -4.5895   -0.2993 C   0  0  0  0  0  0
   -0.8852   -4.2575    1.0300 C   0  0  0  0  0  0
   -3.6099    1.0227   -0.1072 C   0  0  0  0  0  0
   -1.7563    2.6120   -0.1261 C   0  0  0  0  0  0
   -4.5332    2.0948   -0.0213 C   0  0  0  0  0  0
   -0.2770    0.6478    2.0518 C   0  0  0  0  0  0
    1.2651    0.2871    0.1560 C   0  0  0  0  0  0
   -2.6656    3.6793   -0.0514 C   0  0  0  0  0  0
   -4.0459    3.4249    0.0067 C   0  0  0  0  0  0
    2.4343    0.6442    1.0954 C   0  0  0  0  0  0
    3.7782    0.6474    0.3815 C   0  0  0  0  0  0
   -6.8181    2.8399    0.1179 C   0  0  0  0  0  0
    4.2373    1.8166   -0.2611 C   0  0  0  0  0  0
    4.5738   -0.5173    0.3598 C   0  0  0  0  0  0
    5.4800    1.8238   -0.9253 C   0  0  0  0  0  0
    5.8162   -0.5123   -0.3028 C   0  0  0  0  0  0
    6.2726    0.6549   -0.9464 C   0  0  0  0  0  0
   -1.9941   -1.4139    1.0408 H   0  0  0  0  0  0
   -0.8894    0.1909   -1.2731 H   0  0  0  0  0  0
   -3.0221   -1.2351   -1.7888 H   0  0  0  0  0  0
   -3.5588   -2.4082   -0.5974 H   0  0  0  0  0  0
   -1.9151   -3.2344   -2.0127 H   0  0  0  0  0  0
   -0.2823   -3.7784   -1.8029 H   0  0  0  0  0  0
    0.9228   -3.2235    0.4783 H   0  0  0  0  0  0
   -0.0267   -2.3302    1.6479 H   0  0  0  0  0  0
   -5.0515   -0.4437   -0.7500 H   0  0  0  0  0  0
   -4.4200   -0.6891    0.8626 H   0  0  0  0  0  0
   -2.6545   -4.6112   -0.1637 H   0  0  0  0  0  0
   -1.2717   -5.5637   -0.6861 H   0  0  0  0  0  0
   -0.2362   -5.0635    1.3740 H   0  0  0  0  0  0
   -1.6373   -4.0880    1.8017 H   0  0  0  0  0  0
   -0.6992    2.8289   -0.1741 H   0  0  0  0  0  0
    0.2722   -0.0272    2.7088 H   0  0  0  0  0  0
   -0.0002    1.6732    2.2992 H   0  0  0  0  0  0
   -1.3325    0.5304    2.2985 H   0  0  0  0  0  0
   -2.3035    4.6968   -0.0375 H   0  0  0  0  0  0
   -4.7115    4.2721    0.0685 H   0  0  0  0  0  0
    2.2689    1.6295    1.5326 H   0  0  0  0  0  0
    2.4731   -0.0705    1.9182 H   0  0  0  0  0  0
   -7.8247    2.4235    0.1513 H   0  0  0  0  0  0
   -6.6757    3.4291    1.0248 H   0  0  0  0  0  0
   -6.7618    3.4944   -0.7529 H   0  0  0  0  0  0
    3.6331    2.7121   -0.2493 H   0  0  0  0  0  0
    4.2327   -1.4185    0.8480 H   0  0  0  0  0  0
    6.4203   -1.4076   -0.3174 H   0  0  0  0  0  0
   -0.7472   -2.3255   -0.3961 N   0  3  0  0  0  0
   -0.0348   -1.8208   -0.9067 H   0  0  0  0  0  0
  1 27  1  0  0  0
  2 29  1  0  0  0
  3 17  1  0  0  0
  3 24  1  0  0  0
  4 19  2  0  0  0
  5  7  1  0  0  0
  5 18  1  0  0  0
  5 19  1  0  0  0
  6  7  1  0  0  0
  6  8  1  0  0  0
  6 30  1  0  0  0
  6 58  1  0  0  0
  7 12  1  0  0  0
  7 31  1  0  0  0
  8 11  1  0  0  0
  8 32  1  0  0  0
  8 33  1  0  0  0
  9 13  1  0  0  0
  9 34  1  0  0  0
  9 35  1  0  0  0
  9 58  1  0  0  0
 10 14  1  0  0  0
 10 36  1  0  0  0
 10 37  1  0  0  0
 10 58  1  0  0  0
 11 15  1  0  0  0
 11 38  1  0  0  0
 11 39  1  0  0  0
 12 15  2  0  0  0
 12 16  1  0  0  0
 13 14  1  0  0  0
 13 40  1  0  0  0
 13 41  1  0  0  0
 14 42  1  0  0  0
 14 43  1  0  0  0
 15 17  1  0  0  0
 16 20  2  0  0  0
 16 44  1  0  0  0
 17 21  2  0  0  0
 18 45  1  0  0  0
 18 46  1  0  0  0
 18 47  1  0  0  0
 19 22  1  0  0  0
 20 21  1  0  0  0
 20 48  1  0  0  0
 21 49  1  0  0  0
 22 23  1  0  0  0
 22 50  1  0  0  0
 22 51  1  0  0  0
 23 25  2  0  0  0
 23 26  1  0  0  0
 24 52  1  0  0  0
 24 53  1  0  0  0
 24 54  1  0  0  0
 25 27  1  0  0  0
 25 55  1  0  0  0
 26 28  2  0  0  0
 26 56  1  0  0  0
 27 29  2  0  0  0
 28 29  1  0  0  0
 28 57  1  0  0  0
 58 59  1  0  0  0
M  CHG  1  58   1
M  END
> <LID>
L004154

> <PC_CID>
9933302

> <Names>


> <CAS_Numbers>
115904-74-0;115904-75-1;115904-76-2;115905-00-5

$$$$
15462302
                    3D
 Structure written by MMmdl.
 29 31  0  0  1  0            999 V2000
    4.9339    0.7477    2.2582 Cl  0  0  0  0  0  0
   -0.0866    1.2092   -2.9340 O   0  0  0  0  0  0
   -0.4527    1.2915   -0.5867 C   0  0  2  0  0  0
    0.1204    0.2736    0.3780 C   0  0  0  0  0  0
   -0.8312   -0.1539   -0.3854 C   0  0  0  0  0  0
    1.5117   -0.2084    0.3587 C   0  0  0  0  0  0
   -2.1945   -0.5399   -0.0017 C   0  0  0  0  0  0
    0.3227    1.6725   -1.8468 C   0  0  0  0  0  0
    2.4478    0.4127    1.2102 C   0  0  0  0  0  0
    1.9227   -1.2627   -0.4882 C   0  0  0  0  0  0
   -3.0964   -0.9223   -1.0151 C   0  0  0  0  0  0
   -2.6120   -0.5313    1.3478 C   0  0  0  0  0  0
    3.7899   -0.0154    1.2161 C   0  0  0  0  0  0
    3.2650   -1.6891   -0.4800 C   0  0  0  0  0  0
   -4.4131   -1.2964   -0.6823 C   0  0  0  0  0  0
   -3.9293   -0.9062    1.6775 C   0  0  0  0  0  0
    4.1982   -1.0664    0.3716 C   0  0  0  0  0  0
   -4.8293   -1.2886    0.6635 C   0  0  0  0  0  0
   -1.1106    2.0699   -0.2060 H   0  0  0  0  0  0
    2.1390    1.2219    1.8559 H   0  0  0  0  0  0
    1.2183   -1.7453   -1.1501 H   0  0  0  0  0  0
   -2.7808   -0.9267   -2.0486 H   0  0  0  0  0  0
   -1.9306   -0.2394    2.1335 H   0  0  0  0  0  0
    3.5792   -2.4929   -1.1293 H   0  0  0  0  0  0
   -5.1036   -1.5884   -1.4597 H   0  0  0  0  0  0
   -4.2495   -0.9000    2.7090 H   0  0  0  0  0  0
    5.2271   -1.3946    0.3749 H   0  0  0  0  0  0
   -5.8390   -1.5754    0.9178 H   0  0  0  0  0  0
    1.3076    2.4284   -1.6991 O   0  5  0  0  0  0
  1 13  1  0  0  0
  2  8  2  0  0  0
  3  4  1  0  0  0
  3  5  1  0  0  0
  3  8  1  0  0  0
  3 19  1  0  0  0
  4  5  2  0  0  0
  4  6  1  0  0  0
  5  7  1  0  0  0
  6  9  2  0  0  0
  6 10  1  0  0  0
  7 11  2  0  0  0
  7 12  1  0  0  0
  8 29  1  0  0  0
  9 13  1  0  0  0
  9 20  1  0  0  0
 10 14  2  0  0  0
 10 21  1  0  0  0
 11 15  1  0  0  0
 11 22  1  0  0  0
 12 16  2  0  0  0
 12 23  1  0  0  0
 13 17  2  0  0  0
 14 17  1  0  0  0
 14 24  1  0  0  0
 15 18  2  0  0  0
 15 25  1  0  0  0
 16 18  1  0  0  0
 16 26  1  0  0  0
 17 27  1  0  0  0
 18 28  1  0  0  0
M  CHG  1  29  -1
M  END
> <LID>
L017498

> <PC_CID>
15462302

> <Names>


> <CAS_Numbers>


$$$$
44213851
                    3D
 Structure written by MMmdl.
 42 44  0  0  1  0            999 V2000
   -2.4042   -1.1513   -0.3132 S   0  0  0  0  0  0
   -3.5513   -1.9535    0.1372 O   0  0  0  0  0  0
   -1.4324   -1.7776   -1.2222 O   0  0  0  0  0  0
    4.4340    0.1410   -1.2721 O   0  0  0  0  0  0
    0.0369    1.4484    0.5958 C   0  0  2  0  0  0
   -1.1903    0.9064    1.4211 C   0  0  1  0  0  0
   -1.5269   -0.5978    1.2449 C   0  0  2  0  0  0
   -0.4516    2.0814   -0.7480 C   0  0  0  0  0  0
   -0.2895   -1.4696    1.4894 C   0  0  0  0  0  0
    1.1100    0.3673    0.3460 C   0  0  0  0  0  0
    0.9502   -0.9845    0.7595 C   0  0  0  0  0  0
   -0.7451    1.1506   -1.9391 C   0  0  0  0  0  0
    0.7017    2.6309    1.3637 C   0  0  0  0  0  0
   -3.1056    0.3647   -1.1077 C   0  0  0  0  0  0
   -2.2359    0.9311   -2.2421 C   0  0  0  0  0  0
    2.2956    0.7236   -0.3438 C   0  0  0  0  0  0
    1.9643   -1.9295    0.4954 C   0  0  0  0  0  0
    3.3009   -0.2255   -0.6064 C   0  0  0  0  0  0
    3.1362   -1.5546   -0.1835 C   0  0  0  0  0  0
   -2.0622    1.5227    1.2211 H   0  0  0  0  0  0
   -2.2532   -0.8606    2.0156 H   0  0  0  0  0  0
   -1.2936    2.7531   -0.5758 H   0  0  0  0  0  0
    0.3353    2.7449   -1.1094 H   0  0  0  0  0  0
   -0.5020   -2.5051    1.2192 H   0  0  0  0  0  0
   -0.0519   -1.4847    2.5535 H   0  0  0  0  0  0
   -0.2075    0.2099   -1.8636 H   0  0  0  0  0  0
   -0.3202    1.6142   -2.8305 H   0  0  0  0  0  0
    1.1950    2.3041    2.2799 H   0  0  0  0  0  0
    1.4723    3.1332    0.7790 H   0  0  0  0  0  0
   -0.0291    3.3968    1.6273 H   0  0  0  0  0  0
   -3.3585    1.1091   -0.3595 H   0  0  0  0  0  0
   -4.0610    0.0674   -1.5410 H   0  0  0  0  0  0
   -2.6745    1.8717   -2.5771 H   0  0  0  0  0  0
   -2.3055    0.2571   -3.0969 H   0  0  0  0  0  0
   -1.8276    0.8247    3.3786 H   0  0  0  0  0  0
   -0.2042    0.5861    3.1936 H   0  0  0  0  0  0
    2.4407    1.7365   -0.6876 H   0  0  0  0  0  0
    1.8445   -2.9554    0.8119 H   0  0  0  0  0  0
    3.9041   -2.2880   -0.3822 H   0  0  0  0  0  0
    4.4451    1.0529   -1.5187 H   0  0  0  0  0  0
   -1.0021    1.1176    2.8758 N   0  3  0  0  0  0
   -0.8362    2.0986    3.0507 H   0  0  0  0  0  0
  1  2  2  0  0  0
  1  3  2  0  0  0
  1  7  1  0  0  0
  1 14  1  0  0  0
  4 18  1  0  0  0
  4 40  1  0  0  0
  5  6  1  0  0  0
  5  8  1  0  0  0
  5 10  1  0  0  0
  5 13  1  0  0  0
  6  7  1  0  0  0
  6 20  1  0  0  0
  6 41  1  0  0  0
  7  9  1  0  0  0
  7 21  1  0  0  0
  8 12  1  0  0  0
  8 22  1  0  0  0
  8 23  1  0  0  0
  9 11  1  0  0  0
  9 24  1  0  0  0
  9 25  1  0  0  0
 10 11  2  0  0  0
 10 16  1  0  0  0
 11 17  1  0  0  0
 12 15  1  0  0  0
 12 26  1  0  0  0
 12 27  1  0  0  0
 13 28  1  0  0  0
 13 29  1  0  0  0
 13 30  1  0  0  0
 14 15  1  0  0  0
 14 31  1  0  0  0
 14 32  1  0  0  0
 15 33  1  0  0  0
 15 34  1  0  0  0
 16 18  2  0  0  0
 16 37  1  0  0  0
 17 19  2  0  0  0
 17 38  1  0  0  0
 18 19  1  0  0  0
 19 39  1  0  0  0
 35 41  1  0  0  0
 36 41  1  0  0  0
 41 42  1  0  0  0
M  CHG  1  41   1
M  END
> <LID>
L016176

> <PC_CID>
44213851

> <Names>


> <CAS_Numbers>


$$$$
44210520
                    3D
 Structure written by MMmdl.
 45 47  0  0  1  0            999 V2000
   -5.7572    1.9533    1.5821 Cl  0  0  0  0  0  0
   -6.9477    0.4763   -0.9813 Cl  0  0  0  0  0  0
    4.4818    0.0522   -1.7220 S   0  0  0  0  0  0
   -0.6145    0.9932   -0.4246 O   0  0  0  0  0  0
    1.0494   -0.2085    0.5336 N   0  0  0  0  0  0
    2.1197    0.5396   -0.1707 C   0  0  2  0  0  0
    1.5287   -1.2316    1.4904 C   0  0  0  0  0  0
    3.2390   -0.3825   -0.5735 C   0  0  0  0  0  0
    2.4094   -2.2946    0.8043 C   0  0  0  0  0  0
    2.5691    1.7325    0.7116 C   0  0  0  0  0  0
    3.3899   -1.6741   -0.1412 C   0  0  0  0  0  0
   -0.2616    0.0641    0.3052 C   0  0  0  0  0  0
    4.5338   -2.3178   -0.7000 C   0  0  0  0  0  0
   -1.3402   -0.8145    0.9695 C   0  0  0  0  0  0
    5.2279   -1.5136   -1.5646 C   0  0  0  0  0  0
    2.9715    3.4944   -0.9842 C   0  0  0  0  0  0
    4.3434    3.4065    1.0423 C   0  0  0  0  0  0
   -2.7460   -0.4872    0.4863 C   0  0  0  0  0  0
   -3.5274    0.4684    1.1698 C   0  0  0  0  0  0
   -3.2772   -1.1396   -0.6460 C   0  0  0  0  0  0
   -4.8285    0.7754    0.7246 C   0  0  0  0  0  0
   -4.5773   -0.8350   -1.0924 C   0  0  0  0  0  0
   -5.3558    0.1213   -0.4109 C   0  0  0  0  0  0
    1.7167    0.9335   -1.1036 H   0  0  0  0  0  0
    0.7448   -1.7284    2.0588 H   0  0  0  0  0  0
    2.1280   -0.7173    2.2419 H   0  0  0  0  0  0
    1.7699   -2.9874    0.2564 H   0  0  0  0  0  0
    2.9260   -2.8884    1.5590 H   0  0  0  0  0  0
    1.7080    2.3275    1.0209 H   0  0  0  0  0  0
    3.0072    1.3357    1.6281 H   0  0  0  0  0  0
    4.7992   -3.3367   -0.4586 H   0  0  0  0  0  0
   -1.1376   -1.8656    0.7593 H   0  0  0  0  0  0
   -1.2992   -0.6839    2.0516 H   0  0  0  0  0  0
    6.1205   -1.7491   -2.1255 H   0  0  0  0  0  0
    3.7420    4.1082   -1.4520 H   0  0  0  0  0  0
    2.5028    2.9105   -1.7756 H   0  0  0  0  0  0
    2.2193    4.1606   -0.5597 H   0  0  0  0  0  0
    3.6974    4.0760    1.6119 H   0  0  0  0  0  0
    4.8576    2.7474    1.7428 H   0  0  0  0  0  0
    5.1030    4.0080    0.5417 H   0  0  0  0  0  0
   -3.1273    0.9728    2.0372 H   0  0  0  0  0  0
   -2.6878   -1.8725   -1.1776 H   0  0  0  0  0  0
   -4.9777   -1.3366   -1.9612 H   0  0  0  0  0  0
    3.5618    2.6240    0.0592 N   0  3  0  0  0  0
    4.2242    2.0175   -0.4045 H   0  0  0  0  0  0
  1 21  1  0  0  0
  2 23  1  0  0  0
  3  8  1  0  0  0
  3 15  1  0  0  0
  4 12  2  0  0  0
  5  6  1  0  0  0
  5  7  1  0  0  0
  5 12  1  0  0  0
  6  8  1  0  0  0
  6 10  1  0  0  0
  6 24  1  0  0  0
  7  9  1  0  0  0
  7 25  1  0  0  0
  7 26  1  0  0  0
  8 11  2  0  0  0
  9 11  1  0  0  0
  9 27  1  0  0  0
  9 28  1  0  0  0
 10 29  1  0  0  0
 10 30  1  0  0  0
 10 44  1  0  0  0
 11 13  1  0  0  0
 12 14  1  0  0  0
 13 15  2  0  0  0
 13 31  1  0  0  0
 14 18  1  0  0  0
 14 32  1  0  0  0
 14 33  1  0  0  0
 15 34  1  0  0  0
 16 35  1  0  0  0
 16 36  1  0  0  0
 16 37  1  0  0  0
 16 44  1  0  0  0
 17 38  1  0  0  0
 17 39  1  0  0  0
 17 40  1  0  0  0
 17 44  1  0  0  0
 18 19  2  0  0  0
 18 20  1  0  0  0
 19 21  1  0  0  0
 19 41  1  0  0  0
 20 22  2  0  0  0
 20 42  1  0  0  0
 21 23  2  0  0  0
 22 23  1  0  0  0
 22 43  1  0  0  0
 44 45  1  0  0  0
M  CHG  1  44   1
M  END
> <LID>
L007446

> <PC_CID>
44210520

> <Names>


> <CAS_Numbers>


$$$$
44210521
                    3D
 Structure written by MMmdl.
 54 57  0  0  1  0            999 V2000
    5.1682    0.1282    1.7878 S   0  0  0  0  0  0
   -0.0157    0.4997    0.5449 O   0  0  0  0  0  0
   -6.3640   -1.8345    1.7193 O   0  0  0  0  0  0
    1.8097   -0.2610   -0.5591 N   0  0  0  0  0  0
    2.7549    0.5094    0.2861 C   0  0  1  0  0  0
    2.4374   -1.0225   -1.6627 C   0  0  0  0  0  0
    4.0031   -0.2880    0.5540 C   0  0  0  0  0  0
    3.4712   -2.0416   -1.1444 C   0  0  0  0  0  0
    3.0142    1.8890   -0.3716 C   0  0  0  0  0  0
    4.3481   -1.4498   -0.0855 C   0  0  0  0  0  0
    0.4730   -0.2315   -0.3194 C   0  0  0  0  0  0
   -0.4594   -1.1413   -1.1436 C   0  0  0  0  0  0
    5.5784   -1.9988    0.3835 C   0  0  0  0  0  0
   -1.8954   -1.1251   -0.6398 C   0  0  0  0  0  0
   -4.1579   -0.1878   -0.7116 C   0  0  0  0  0  0
   -5.1259    0.8192   -1.3125 C   0  0  0  0  0  0
    6.1440   -1.2575    1.3868 C   0  0  0  0  0  0
   -6.3050    1.1233   -0.3806 C   0  0  0  0  0  0
   -4.5726   -1.1003    0.2935 C   0  0  0  0  0  0
   -2.8253   -0.2098   -1.1737 C   0  0  0  0  0  0
   -6.9698   -0.1611    0.1319 C   0  0  0  0  0  0
   -5.9720   -1.1056    0.8086 C   0  0  0  0  0  0
   -2.3060   -2.0278    0.3612 C   0  0  0  0  0  0
    4.5105    3.8437   -0.3731 C   0  0  0  0  0  0
    3.1460    3.3768    1.6060 C   0  0  0  0  0  0
   -3.6346   -2.0140    0.8252 C   0  0  0  0  0  0
    2.2986    0.6732    1.2623 H   0  0  0  0  0  0
    2.9497   -0.3035   -2.3023 H   0  0  0  0  0  0
    1.7370   -1.5273   -2.3254 H   0  0  0  0  0  0
    4.0703   -2.4143   -1.9758 H   0  0  0  0  0  0
    2.9460   -2.9054   -0.7356 H   0  0  0  0  0  0
    3.5057    1.7249   -1.3313 H   0  0  0  0  0  0
    2.0714    2.3908   -0.5965 H   0  0  0  0  0  0
   -0.4469   -0.8240   -2.1871 H   0  0  0  0  0  0
   -0.0935   -2.1684   -1.1100 H   0  0  0  0  0  0
    5.9956   -2.9101   -0.0195 H   0  0  0  0  0  0
   -4.5977    1.7426   -1.5531 H   0  0  0  0  0  0
   -5.4948    0.4126   -2.2549 H   0  0  0  0  0  0
    7.0637   -1.4473    1.9207 H   0  0  0  0  0  0
   -5.9518    1.7061    0.4715 H   0  0  0  0  0  0
   -7.0364    1.7464   -0.8957 H   0  0  0  0  0  0
   -2.5128    0.4841   -1.9406 H   0  0  0  0  0  0
   -7.4365   -0.6941   -0.6967 H   0  0  0  0  0  0
   -7.7636    0.0859    0.8373 H   0  0  0  0  0  0
   -1.6019   -2.7326    0.7791 H   0  0  0  0  0  0
    5.1702    4.4592    0.2397 H   0  0  0  0  0  0
    5.1179    3.3991   -1.1623 H   0  0  0  0  0  0
    3.7682    4.4949   -0.8369 H   0  0  0  0  0  0
    3.8145    4.0114    2.1888 H   0  0  0  0  0  0
    2.2996    3.9839    1.2821 H   0  0  0  0  0  0
    2.7742    2.6027    2.2763 H   0  0  0  0  0  0
   -3.9257   -2.7149    1.5945 H   0  0  0  0  0  0
    3.8603    2.7962    0.4452 N   0  3  0  0  0  0
    4.6088    2.2269    0.8156 H   0  0  0  0  0  0
  1  7  1  0  0  0
  1 17  1  0  0  0
  2 11  2  0  0  0
  3 22  2  0  0  0
  4  5  1  0  0  0
  4  6  1  0  0  0
  4 11  1  0  0  0
  5  7  1  0  0  0
  5  9  1  0  0  0
  5 27  1  0  0  0
  6  8  1  0  0  0
  6 28  1  0  0  0
  6 29  1  0  0  0
  7 10  2  0  0  0
  8 10  1  0  0  0
  8 30  1  0  0  0
  8 31  1  0  0  0
  9 32  1  0  0  0
  9 33  1  0  0  0
  9 53  1  0  0  0
 10 13  1  0  0  0
 11 12  1  0  0  0
 12 14  1  0  0  0
 12 34  1  0  0  0
 12 35  1  0  0  0
 13 17  2  0  0  0
 13 36  1  0  0  0
 14 20  2  0  0  0
 14 23  1  0  0  0
 15 16  1  0  0  0
 15 19  2  0  0  0
 15 20  1  0  0  0
 16 18  1  0  0  0
 16 37  1  0  0  0
 16 38  1  0  0  0
 17 39  1  0  0  0
 18 21  1  0  0  0
 18 40  1  0  0  0
 18 41  1  0  0  0
 19 22  1  0  0  0
 19 26  1  0  0  0
 20 42  1  0  0  0
 21 22  1  0  0  0
 21 43  1  0  0  0
 21 44  1  0  0  0
 23 26  2  0  0  0
 23 45  1  0  0  0
 24 46  1  0  0  0
 24 47  1  0  0  0
 24 48  1  0  0  0
 24 53  1  0  0  0
 25 49  1  0  0  0
 25 50  1  0  0  0
 25 51  1  0  0  0
 25 53  1  0  0  0
 26 52  1  0  0  0
 53 54  1  0  0  0
M  CHG  1  53   1
M  END
> <LID>
L007447

> <PC_CID>
44210521

> <Names>


> <CAS_Numbers>


$$$$
18687608
                    3D
 Structure written by MMmdl.
 50 52  0  0  1  0            999 V2000
    4.4658    1.8749    1.2135 Cl  0  0  0  0  0  0
    6.8377   -0.0038    2.1173 Cl  0  0  0  0  0  0
   -6.2369    3.0626    1.0576 O   0  0  0  0  0  0
    0.2289    2.0128   -1.4911 O   0  0  0  0  0  0
    1.4218    0.0228    1.0220 O   0  0  0  0  0  0
    0.1237    0.9034   -0.6156 N   0  0  0  0  0  0
   -4.0373    2.1836    0.4115 C   0  0  0  0  0  0
   -5.4407    2.6282   -0.0249 C   0  0  1  0  0  0
   -4.7965    0.7823   -1.3727 C   0  0  0  0  0  0
   -6.0261    1.3994   -0.7132 C   0  0  0  0  0  0
   -2.3447    1.0181   -1.0249 C   0  0  0  0  0  0
   -1.2089    0.8626    0.0240 C   0  0  1  0  0  0
   -1.4572   -0.4107    0.8371 C   0  0  0  0  0  0
    1.3187    0.5456   -0.0881 C   0  0  0  0  0  0
   -1.3005   -1.6853    0.2467 C   0  0  0  0  0  0
   -1.8651   -0.3183    2.1858 C   0  0  0  0  0  0
    2.5773    0.7159   -0.9638 C   0  0  0  0  0  0
   -1.5451   -2.8512    0.9973 C   0  0  0  0  0  0
   -2.1103   -1.4849    2.9355 C   0  0  0  0  0  0
   -1.9504   -2.7513    2.3418 C   0  0  0  0  0  0
    3.7405   -0.1489   -0.4875 C   0  0  0  0  0  0
    4.6498    0.3068    0.5008 C   0  0  0  0  0  0
    3.9082   -1.4337   -1.0480 C   0  0  0  0  0  0
    5.7134   -0.5282    0.9141 C   0  0  0  0  0  0
    4.9682   -2.2605   -0.6334 C   0  0  0  0  0  0
    5.8696   -1.8074    0.3464 C   0  0  0  0  0  0
   -4.0217    1.8826    1.4599 H   0  0  0  0  0  0
   -3.3213    2.9984    0.2940 H   0  0  0  0  0  0
   -5.3533    3.4390   -0.7499 H   0  0  0  0  0  0
   -4.9294   -0.2752   -1.6037 H   0  0  0  0  0  0
   -4.5812    1.3073   -2.3052 H   0  0  0  0  0  0
   -6.4367    0.7049    0.0216 H   0  0  0  0  0  0
   -6.8147    1.6449   -1.4254 H   0  0  0  0  0  0
   -2.2782    0.2018   -1.7460 H   0  0  0  0  0  0
   -2.2496    1.9417   -1.5973 H   0  0  0  0  0  0
   -1.2425    1.7124    0.7076 H   0  0  0  0  0  0
   -6.3517    2.3474    1.6649 H   0  0  0  0  0  0
   -0.9886   -1.7729   -0.7838 H   0  0  0  0  0  0
   -1.9891    0.6472    2.6540 H   0  0  0  0  0  0
    2.3392    0.4417   -1.9928 H   0  0  0  0  0  0
    2.8734    1.7645   -0.9888 H   0  0  0  0  0  0
    1.0725    2.3842   -1.2800 H   0  0  0  0  0  0
   -1.4206   -3.8227    0.5420 H   0  0  0  0  0  0
   -2.4192   -1.4084    3.9677 H   0  0  0  0  0  0
   -2.1368   -3.6458    2.9179 H   0  0  0  0  0  0
    3.2196   -1.7921   -1.7993 H   0  0  0  0  0  0
    5.0893   -3.2426   -1.0664 H   0  0  0  0  0  0
    6.6826   -2.4438    0.6638 H   0  0  0  0  0  0
   -3.6949    0.9957   -0.4100 N   0  3  1  0  0  0
   -3.7172    0.2030    0.2169 H   0  0  0  0  0  0
  1 22  1  0  0  0
  2 24  1  0  0  0
  3  8  1  0  0  0
  3 37  1  0  0  0
  4  6  1  0  0  0
  4 42  1  0  0  0
  5 14  2  0  0  0
  6 12  1  0  0  0
  6 14  1  0  0  0
  7  8  1  0  0  0
  7 27  1  0  0  0
  7 28  1  0  0  0
  7 49  1  0  0  0
  8 10  1  0  0  0
  8 29  1  0  0  0
  9 10  1  0  0  0
  9 30  1  0  0  0
  9 31  1  0  0  0
  9 49  1  0  0  0
 10 32  1  0  0  0
 10 33  1  0  0  0
 11 12  1  0  0  0
 11 34  1  0  0  0
 11 35  1  0  0  0
 11 49  1  0  0  0
 12 13  1  0  0  0
 12 36  1  0  0  0
 13 15  2  0  0  0
 13 16  1  0  0  0
 14 17  1  0  0  0
 15 18  1  0  0  0
 15 38  1  0  0  0
 16 19  2  0  0  0
 16 39  1  0  0  0
 17 21  1  0  0  0
 17 40  1  0  0  0
 17 41  1  0  0  0
 18 20  2  0  0  0
 18 43  1  0  0  0
 19 20  1  0  0  0
 19 44  1  0  0  0
 20 45  1  0  0  0
 21 22  2  0  0  0
 21 23  1  0  0  0
 22 24  1  0  0  0
 23 25  2  0  0  0
 23 46  1  0  0  0
 24 26  2  0  0  0
 25 26  1  0  0  0
 25 47  1  0  0  0
 26 48  1  0  0  0
 49 50  1  0  0  0
M  CHG  1  49   1
M  END
> <LID>
L015592

> <PC_CID>
18687608

> <Names>


> <CAS_Numbers>


$$$$
9576771
                    3D
 Structure written by MMmdl.
 61 66  0  0  1  0            999 V2000
   -0.9473    2.3488   -0.3693 O   0  0  0  0  0  0
   -1.9396    0.0433    2.8247 O   0  0  0  0  0  0
   -3.0491    4.2250   -1.4407 O   0  0  0  0  0  0
    3.9463    1.9585   -1.6450 O   0  0  0  0  0  0
    1.7631    1.2985   -0.0507 N   0  0  0  0  0  0
    3.0141    0.8037    0.0738 N   0  0  0  0  0  0
   -1.5091    0.2229    0.4122 C   0  0  1  0  0  0
   -1.6031   -0.6707    1.6438 C   0  0  2  0  0  0
   -2.7886   -1.6340    1.3473 C   0  0  1  0  0  0
   -0.5593    1.3984    0.6422 C   0  0  1  0  0  0
   -1.1792   -0.6413   -0.8548 C   0  0  0  0  0  0
   -2.7396    0.9707    0.1122 C   0  0  0  0  0  0
   -0.1735   -1.2532    1.9011 C   0  0  0  0  0  0
   -4.1272   -0.8311    1.0988 C   0  0  0  0  0  0
   -2.1946   -1.7781   -1.0683 C   0  0  0  0  0  0
   -4.0366    0.5017    0.3264 C   0  0  0  0  0  0
    0.9944   -0.1948    1.8419 C   0  0  0  0  0  0
    0.8395    0.8679    0.7366 C   0  0  0  0  0  0
   -2.3178    2.1754   -0.4238 C   0  0  0  0  0  0
   -3.3540   -3.6812    0.0315 C   0  0  0  0  0  0
   -5.0526    1.3719   -0.1255 C   0  0  0  0  0  0
   -3.3512    3.0179   -0.8831 C   0  0  0  0  0  0
   -4.7072    2.6090   -0.7401 C   0  0  0  0  0  0
   -2.6780   -4.8031   -0.7318 C   0  0  0  0  0  0
   -3.1013   -5.2811   -1.9116 C   0  0  0  0  0  0
    4.0452    1.1696   -0.7039 C   0  0  0  0  0  0
    5.3509    0.4892   -0.4037 C   0  0  0  0  0  0
    6.2653    0.2286   -1.4493 C   0  0  0  0  0  0
    5.7028    0.1371    0.9212 C   0  0  0  0  0  0
    7.5006   -0.3924   -1.1801 C   0  0  0  0  0  0
    6.9386   -0.4836    1.1891 C   0  0  0  0  0  0
    7.8368   -0.7508    0.1388 C   0  0  0  0  0  0
   -2.9294   -2.2823    2.2137 H   0  0  0  0  0  0
   -0.7749    1.9021    1.5873 H   0  0  0  0  0  0
   -0.1883   -1.0893   -0.7981 H   0  0  0  0  0  0
   -1.1453   -0.0181   -1.7497 H   0  0  0  0  0  0
    0.0474   -2.0363    1.1771 H   0  0  0  0  0  0
   -0.1494   -1.7660    2.8638 H   0  0  0  0  0  0
   -4.5453   -0.5732    2.0724 H   0  0  0  0  0  0
   -4.8836   -1.4569    0.6272 H   0  0  0  0  0  0
   -3.1345   -1.3850   -1.4570 H   0  0  0  0  0  0
   -1.8137   -2.4542   -1.8341 H   0  0  0  0  0  0
    1.9446   -0.7243    1.7791 H   0  0  0  0  0  0
    1.0180    0.3282    2.7984 H   0  0  0  0  0  0
   -1.2784    0.6982    2.9891 H   0  0  0  0  0  0
   -3.6407   -4.0795    1.0054 H   0  0  0  0  0  0
   -4.2720   -3.3789   -0.4744 H   0  0  0  0  0  0
   -6.0911    1.1050    0.0042 H   0  0  0  0  0  0
   -5.4952    3.2634   -1.0830 H   0  0  0  0  0  0
   -1.7972   -5.2325   -0.2764 H   0  0  0  0  0  0
   -2.1180    4.3858   -1.4720 H   0  0  0  0  0  0
    3.1428    0.1258    0.8101 H   0  0  0  0  0  0
   -2.5745   -6.0843   -2.4060 H   0  0  0  0  0  0
   -3.9772   -4.8797   -2.4005 H   0  0  0  0  0  0
    6.0231    0.5002   -2.4669 H   0  0  0  0  0  0
    5.0352    0.3435    1.7452 H   0  0  0  0  0  0
    8.1912   -0.5918   -1.9862 H   0  0  0  0  0  0
    7.1996   -0.7513    2.2025 H   0  0  0  0  0  0
    8.7847   -1.2256    0.3452 H   0  0  0  0  0  0
   -2.4395   -2.5226    0.1958 N   0  3  2  0  0  0
   -1.5509   -2.9291    0.4507 H   0  0  0  0  0  0
  1 10  1  0  0  0
  1 19  1  0  0  0
  2  8  1  0  0  0
  2 45  1  0  0  0
  3 22  1  0  0  0
  3 51  1  0  0  0
  4 26  2  0  0  0
  5  6  1  0  0  0
  5 18  2  0  0  0
  6 26  1  0  0  0
  6 52  1  0  0  0
  7  8  1  0  0  0
  7 10  1  0  0  0
  7 11  1  0  0  0
  7 12  1  0  0  0
  8  9  1  0  0  0
  8 13  1  0  0  0
  9 14  1  0  0  0
  9 33  1  0  0  0
  9 60  1  0  0  0
 10 18  1  0  0  0
 10 34  1  0  0  0
 11 15  1  0  0  0
 11 35  1  0  0  0
 11 36  1  0  0  0
 12 16  2  0  0  0
 12 19  1  0  0  0
 13 17  1  0  0  0
 13 37  1  0  0  0
 13 38  1  0  0  0
 14 16  1  0  0  0
 14 39  1  0  0  0
 14 40  1  0  0  0
 15 41  1  0  0  0
 15 42  1  0  0  0
 15 60  1  0  0  0
 16 21  1  0  0  0
 17 18  1  0  0  0
 17 43  1  0  0  0
 17 44  1  0  0  0
 19 22  2  0  0  0
 20 24  1  0  0  0
 20 46  1  0  0  0
 20 47  1  0  0  0
 20 60  1  0  0  0
 21 23  2  0  0  0
 21 48  1  0  0  0
 22 23  1  0  0  0
 23 49  1  0  0  0
 24 25  2  0  0  0
 24 50  1  0  0  0
 25 53  1  0  0  0
 25 54  1  0  0  0
 26 27  1  0  0  0
 27 28  2  0  0  0
 27 29  1  0  0  0
 28 30  1  0  0  0
 28 55  1  0  0  0
 29 31  2  0  0  0
 29 56  1  0  0  0
 30 32  2  0  0  0
 30 57  1  0  0  0
 31 32  1  0  0  0
 31 58  1  0  0  0
 32 59  1  0  0  0
 60 61  1  0  0  0
M  CHG  1  60   1
M  END
> <LID>
L024022

> <PC_CID>
9576771

> <Names>
naloxone benzoylhydrazone

> <CAS_Numbers>
119630-94-3

$$$$
21760381
                    3D
 Structure written by MMmdl.
 58 61  0  0  1  0            999 V2000
   -3.7072    1.2584   -1.3829 O   0  0  0  0  0  0
    0.7098    0.3426   -0.7803 O   0  0  0  0  0  0
    5.6267    2.0507   -0.7803 O   0  0  0  0  0  0
   -0.3979    0.2756    1.2002 N   0  0  0  0  0  0
   -2.8771    0.0440    0.5406 C   0  0  1  0  0  0
   -1.6116    0.9564    0.6910 C   0  0  1  0  0  0
   -4.0458    0.8955   -0.0463 C   0  0  1  0  0  0
   -1.9051    2.2240    1.5279 C   0  0  0  0  0  0
   -4.3160    2.1511    0.8101 C   0  0  0  0  0  0
   -3.0668    3.0301    0.9392 C   0  0  0  0  0  0
   -3.7741   -1.8416   -0.9168 C   0  0  0  0  0  0
   -1.8988   -2.2973    0.4567 C   0  0  0  0  0  0
   -3.3296   -3.2641   -1.2288 C   0  0  0  0  0  0
   -2.5166   -3.6263    0.0044 C   0  0  0  0  0  0
   -0.4222   -0.1238    2.6144 C   0  0  0  0  0  0
    0.7000    0.0802    0.4240 C   0  0  0  0  0  0
   -4.8070    1.6424   -2.1946 C   0  0  0  0  0  0
    1.9718   -0.5020    1.0743 C   0  0  0  0  0  0
    3.1863   -0.4212    0.1598 C   0  0  0  0  0  0
    3.9167    0.7905    0.0629 C   0  0  0  0  0  0
    3.5810   -1.5559   -0.5875 C   0  0  0  0  0  0
    5.0382    0.8031   -0.8061 C   0  0  0  0  0  0
    3.8428    2.1082    0.6307 C   0  0  0  0  0  0
    4.7025   -1.5044   -1.4412 C   0  0  0  0  0  0
    5.4430   -0.3135   -1.5552 C   0  0  0  0  0  0
    4.8906    2.8118    0.0875 C   0  0  0  0  0  0
   -3.2028   -0.2751    1.5313 H   0  0  0  0  0  0
   -1.4031    1.3352   -0.3104 H   0  0  0  0  0  0
   -4.9647    0.3090   -0.0478 H   0  0  0  0  0  0
   -1.0160    2.8545    1.5722 H   0  0  0  0  0  0
   -2.1498    1.9656    2.5582 H   0  0  0  0  0  0
   -4.6401    1.8420    1.8046 H   0  0  0  0  0  0
   -5.1400    2.7351    0.4018 H   0  0  0  0  0  0
   -3.2806    3.8912    1.5729 H   0  0  0  0  0  0
   -2.7878    3.4268   -0.0379 H   0  0  0  0  0  0
   -4.0876   -1.3103   -1.8155 H   0  0  0  0  0  0
   -4.6176   -1.8854   -0.2259 H   0  0  0  0  0  0
   -1.9786   -2.2054    1.5399 H   0  0  0  0  0  0
   -0.8419   -2.2740    0.1946 H   0  0  0  0  0  0
   -2.6935   -3.2730   -2.1152 H   0  0  0  0  0  0
   -4.1650   -3.9431   -1.4025 H   0  0  0  0  0  0
   -3.1803   -4.0069    0.7822 H   0  0  0  0  0  0
   -1.7677   -4.3929   -0.1971 H   0  0  0  0  0  0
   -0.0246   -1.1286    2.7600 H   0  0  0  0  0  0
    0.1666    0.5699    3.2157 H   0  0  0  0  0  0
   -1.4316   -0.1371    3.0238 H   0  0  0  0  0  0
   -4.4548    1.8394   -3.2070 H   0  0  0  0  0  0
   -5.5541    0.8499   -2.2513 H   0  0  0  0  0  0
   -5.2859    2.5512   -1.8318 H   0  0  0  0  0  0
    2.2018    0.0347    1.9953 H   0  0  0  0  0  0
    1.7938   -1.5431    1.3455 H   0  0  0  0  0  0
    3.0190   -2.4753   -0.5103 H   0  0  0  0  0  0
    3.1083    2.4637    1.3378 H   0  0  0  0  0  0
    4.9922   -2.3778   -2.0071 H   0  0  0  0  0  0
    6.3041   -0.2569   -2.2044 H   0  0  0  0  0  0
    5.2333    3.8285    0.2136 H   0  0  0  0  0  0
   -2.6096   -1.2017   -0.2580 N   0  3  0  0  0  0
   -2.0055   -0.9226   -1.0189 H   0  0  0  0  0  0
  1  7  1  0  0  0
  1 17  1  0  0  0
  2 16  2  0  0  0
  3 22  1  0  0  0
  3 26  1  0  0  0
  4  6  1  0  0  0
  4 15  1  0  0  0
  4 16  1  0  0  0
  5  6  1  0  0  0
  5  7  1  0  0  0
  5 27  1  0  0  0
  5 57  1  0  0  0
  6  8  1  0  0  0
  6 28  1  0  0  0
  7  9  1  0  0  0
  7 29  1  0  0  0
  8 10  1  0  0  0
  8 30  1  0  0  0
  8 31  1  0  0  0
  9 10  1  0  0  0
  9 32  1  0  0  0
  9 33  1  0  0  0
 10 34  1  0  0  0
 10 35  1  0  0  0
 11 13  1  0  0  0
 11 36  1  0  0  0
 11 37  1  0  0  0
 11 57  1  0  0  0
 12 14  1  0  0  0
 12 38  1  0  0  0
 12 39  1  0  0  0
 12 57  1  0  0  0
 13 14  1  0  0  0
 13 40  1  0  0  0
 13 41  1  0  0  0
 14 42  1  0  0  0
 14 43  1  0  0  0
 15 44  1  0  0  0
 15 45  1  0  0  0
 15 46  1  0  0  0
 16 18  1  0  0  0
 17 47  1  0  0  0
 17 48  1  0  0  0
 17 49  1  0  0  0
 18 19  1  0  0  0
 18 50  1  0  0  0
 18 51  1  0  0  0
 19 20  2  0  0  0
 19 21  1  0  0  0
 20 22  1  0  0  0
 20 23  1  0  0  0
 21 24  2  0  0  0
 21 52  1  0  0  0
 22 25  2  0  0  0
 23 26  2  0  0  0
 23 53  1  0  0  0
 24 25  1  0  0  0
 24 54  1  0  0  0
 25 55  1  0  0  0
 26 56  1  0  0  0
 57 58  1  0  0  0
M  CHG  1  57   1
M  END
> <LID>
L009087

> <PC_CID>
21760381

> <Names>


> <CAS_Numbers>


$$$$
44216022
                    3D
 Structure written by MMmdl.
 67 70  0  0  1  0            999 V2000
    1.3600   -6.0188    2.9666 O   0  0  0  0  0  0
    0.5522    2.1458    0.5233 O   0  0  0  0  0  0
   -0.6957   -7.0380    2.9923 O   0  0  0  0  0  0
   -0.7165    0.3762   -0.1079 N   0  0  0  0  0  0
    0.8265   -4.7030    2.9148 C   0  0  2  0  0  0
    0.4471   -4.2644    1.4912 C   0  0  0  0  0  0
    1.3605   -2.4004    2.6751 C   0  0  0  0  0  0
    1.8621   -3.6731    3.3493 C   0  0  0  0  0  0
   -0.2213   -1.9678    0.7828 C   0  0  0  0  0  0
    0.3272   -0.5918    0.3189 C   0  0  1  0  0  0
    1.4305   -0.7457   -0.7283 C   0  0  0  0  0  0
   -0.5019    1.7120    0.0516 C   0  0  0  0  0  0
   -1.5911    2.7337   -0.3690 C   0  0  0  0  0  0
   -1.9530   -0.1548   -0.7063 C   0  0  0  0  0  0
    1.1198   -1.0269   -2.0781 C   0  0  0  0  0  0
    2.7837   -0.6048   -0.3486 C   0  0  0  0  0  0
    0.5345   -7.0788    3.0073 C   0  0  0  0  0  0
   -1.5230    4.0110    0.4724 C   0  0  0  0  0  0
   -1.5879    3.0128   -1.8772 C   0  0  0  0  0  0
    2.1467   -1.1663   -3.0313 C   0  0  0  0  0  0
    3.8105   -0.7452   -1.3019 C   0  0  0  0  0  0
    3.4925   -1.0265   -2.6438 C   0  0  0  0  0  0
    1.2872   -8.4009    3.0707 C   0  0  0  0  0  0
   -0.6201    5.0538    0.1584 C   0  0  0  0  0  0
   -2.8202    3.2328   -2.5316 C   0  0  0  0  0  0
   -2.3775    4.1570    1.5883 C   0  0  0  0  0  0
   -0.3920    3.0626   -2.6349 C   0  0  0  0  0  0
   -0.5755    6.2207    0.9455 C   0  0  0  0  0  0
   -2.8615    3.4883   -3.9158 C   0  0  0  0  0  0
   -2.3329    5.3242    2.3751 C   0  0  0  0  0  0
   -0.4338    3.3176   -4.0191 C   0  0  0  0  0  0
   -1.4323    6.3570    2.0537 C   0  0  0  0  0  0
   -1.6683    3.5292   -4.6607 C   0  0  0  0  0  0
   -0.0422   -4.6102    3.5693 H   0  0  0  0  0  0
    1.0028   -4.8313    0.7431 H   0  0  0  0  0  0
   -0.6153   -4.4340    1.3096 H   0  0  0  0  0  0
    0.5586   -1.9639    3.2730 H   0  0  0  0  0  0
    2.1466   -1.6527    2.5697 H   0  0  0  0  0  0
    1.9404   -3.5808    4.4329 H   0  0  0  0  0  0
    2.8467   -3.9350    2.9583 H   0  0  0  0  0  0
   -0.6327   -2.5105   -0.0677 H   0  0  0  0  0  0
   -1.0310   -1.8422    1.5035 H   0  0  0  0  0  0
    0.7944   -0.1734    1.2118 H   0  0  0  0  0  0
   -2.5594    2.2919   -0.1327 H   0  0  0  0  0  0
   -2.7362   -0.2268    0.0491 H   0  0  0  0  0  0
   -2.3241    0.4633   -1.5221 H   0  0  0  0  0  0
   -1.8276   -1.1378   -1.1531 H   0  0  0  0  0  0
    0.0945   -1.1381   -2.3955 H   0  0  0  0  0  0
    3.0436   -0.3810    0.6755 H   0  0  0  0  0  0
    1.9014   -1.3803   -4.0613 H   0  0  0  0  0  0
    4.8428   -0.6337   -1.0041 H   0  0  0  0  0  0
    4.2799   -1.1325   -3.3756 H   0  0  0  0  0  0
    0.5891   -9.2373    3.1084 H   0  0  0  0  0  0
    1.9206   -8.5187    2.1914 H   0  0  0  0  0  0
    1.9168   -8.4361    3.9599 H   0  0  0  0  0  0
    0.0495    4.9642   -0.6835 H   0  0  0  0  0  0
   -3.7435    3.2063   -1.9714 H   0  0  0  0  0  0
   -3.0730    3.3725    1.8483 H   0  0  0  0  0  0
    0.5685    2.9112   -2.1648 H   0  0  0  0  0  0
    0.1181    7.0111    0.6990 H   0  0  0  0  0  0
   -3.8097    3.6539   -4.4059 H   0  0  0  0  0  0
   -2.9901    5.4271    3.2260 H   0  0  0  0  0  0
    0.4832    3.3529   -4.5887 H   0  0  0  0  0  0
   -1.3977    7.2520    2.6573 H   0  0  0  0  0  0
   -1.6997    3.7257   -5.7223 H   0  0  0  0  0  0
    0.8330   -2.8377    1.3626 N   0  3  2  0  0  0
    1.6115   -2.8221    0.7178 H   0  0  0  0  0  0
  1  5  1  0  0  0
  1 17  1  0  0  0
  2 12  2  0  0  0
  3 17  2  0  0  0
  4 10  1  0  0  0
  4 12  1  0  0  0
  4 14  1  0  0  0
  5  6  1  0  0  0
  5  8  1  0  0  0
  5 34  1  0  0  0
  6 35  1  0  0  0
  6 36  1  0  0  0
  6 66  1  0  0  0
  7  8  1  0  0  0
  7 37  1  0  0  0
  7 38  1  0  0  0
  7 66  1  0  0  0
  8 39  1  0  0  0
  8 40  1  0  0  0
  9 10  1  0  0  0
  9 41  1  0  0  0
  9 42  1  0  0  0
  9 66  1  0  0  0
 10 11  1  0  0  0
 10 43  1  0  0  0
 11 15  2  0  0  0
 11 16  1  0  0  0
 12 13  1  0  0  0
 13 18  1  0  0  0
 13 19  1  0  0  0
 13 44  1  0  0  0
 14 45  1  0  0  0
 14 46  1  0  0  0
 14 47  1  0  0  0
 15 20  1  0  0  0
 15 48  1  0  0  0
 16 21  2  0  0  0
 16 49  1  0  0  0
 17 23  1  0  0  0
 18 24  2  0  0  0
 18 26  1  0  0  0
 19 25  2  0  0  0
 19 27  1  0  0  0
 20 22  2  0  0  0
 20 50  1  0  0  0
 21 22  1  0  0  0
 21 51  1  0  0  0
 22 52  1  0  0  0
 23 53  1  0  0  0
 23 54  1  0  0  0
 23 55  1  0  0  0
 24 28  1  0  0  0
 24 56  1  0  0  0
 25 29  1  0  0  0
 25 57  1  0  0  0
 26 30  2  0  0  0
 26 58  1  0  0  0
 27 31  2  0  0  0
 27 59  1  0  0  0
 28 32  2  0  0  0
 28 60  1  0  0  0
 29 33  2  0  0  0
 29 61  1  0  0  0
 30 32  1  0  0  0
 30 62  1  0  0  0
 31 33  1  0  0  0
 31 63  1  0  0  0
 32 64  1  0  0  0
 33 65  1  0  0  0
 66 67  1  0  0  0
M  CHG  1  66   1
M  END
> <LID>
L023055

> <PC_CID>
44216022

> <Names>


> <CAS_Numbers>


$$$$
10024658
                    3D
 Structure written by MMmdl.
 54 57  0  0  1  0            999 V2000
   -7.5925    0.8601    0.6290 F   0  0  0  0  0  0
   -6.8925    1.7189   -1.2340 F   0  0  0  0  0  0
   -7.3088   -0.3978   -1.1132 F   0  0  0  0  0  0
   -0.3250    0.8283   -0.4712 O   0  0  0  0  0  0
    1.0599   -0.1009    1.0747 N   0  0  0  0  0  0
    4.1991    2.9237    0.0450 C   0  0  0  0  0  0
    5.5947    0.9598    0.1395 C   0  0  0  0  0  0
    5.0324    2.8328   -1.2360 C   0  0  0  0  0  0
    6.2164    1.9590   -0.8349 C   0  0  0  0  0  0
    3.3769    0.9168    1.3892 C   0  0  0  0  0  0
    2.2742    0.4254    0.3935 C   0  0  1  0  0  0
    2.7719   -0.5493   -0.6717 C   0  0  0  0  0  0
   -0.1865    0.1804    0.5686 C   0  0  0  0  0  0
    1.2186   -0.9345    2.2026 C   0  0  0  0  0  0
    3.2313   -1.8399   -0.3230 C   0  0  0  0  0  0
    2.7725   -0.1622   -2.0303 C   0  0  0  0  0  0
   -1.3516   -0.3300    1.3253 C   0  0  0  0  0  0
    0.1736   -1.4485    2.8627 C   0  0  0  0  0  0
   -1.1506   -1.1273    2.3988 C   0  0  0  0  0  0
    3.6924   -2.7242   -1.3171 C   0  0  0  0  0  0
    3.2342   -1.0466   -3.0238 C   0  0  0  0  0  0
   -2.7350   -0.0820    0.8631 C   0  0  0  0  0  0
    3.6953   -2.3277   -2.6676 C   0  0  0  0  0  0
   -3.1716    1.2324    0.5867 C   0  0  0  0  0  0
   -3.6419   -1.1560    0.7249 C   0  0  0  0  0  0
   -4.4936    1.4670    0.1619 C   0  0  0  0  0  0
   -4.9635   -0.9189    0.2998 C   0  0  0  0  0  0
   -5.3966    0.3928    0.0092 C   0  0  0  0  0  0
   -6.8274    0.6486   -0.4412 C   0  0  0  0  0  0
    3.1428    3.0783   -0.1650 H   0  0  0  0  0  0
    4.5253    3.7818    0.6339 H   0  0  0  0  0  0
    6.3227    0.5724    0.8528 H   0  0  0  0  0  0
    5.2137    0.1130   -0.4229 H   0  0  0  0  0  0
    3.8235    0.0828    1.9292 H   0  0  0  0  0  0
    2.9040    1.5481    2.1427 H   0  0  0  0  0  0
    4.4572    2.3352   -2.0176 H   0  0  0  0  0  0
    5.3345    3.8098   -1.6144 H   0  0  0  0  0  0
    6.9665    2.5633   -0.3227 H   0  0  0  0  0  0
    6.6964    1.4767   -1.6870 H   0  0  0  0  0  0
    1.9740    1.3228   -0.1413 H   0  0  0  0  0  0
    2.2299   -1.1593    2.4959 H   0  0  0  0  0  0
    3.2429   -2.1603    0.7073 H   0  0  0  0  0  0
    2.4182    0.8164   -2.3198 H   0  0  0  0  0  0
    0.3196   -2.0942    3.7163 H   0  0  0  0  0  0
   -1.9959   -1.5326    2.9362 H   0  0  0  0  0  0
    4.0449   -3.7078   -1.0431 H   0  0  0  0  0  0
    3.2327   -0.7424   -4.0602 H   0  0  0  0  0  0
    4.0487   -3.0066   -3.4298 H   0  0  0  0  0  0
   -2.4967    2.0679    0.7026 H   0  0  0  0  0  0
   -3.3286   -2.1678    0.9376 H   0  0  0  0  0  0
   -4.8128    2.4783   -0.0429 H   0  0  0  0  0  0
   -5.6452   -1.7506    0.1994 H   0  0  0  0  0  0
    4.5146    1.7043    0.8291 N   0  3  0  0  0  0
    4.9769    2.0708    1.6492 H   0  0  0  0  0  0
  1 29  1  0  0  0
  2 29  1  0  0  0
  3 29  1  0  0  0
  4 13  2  0  0  0
  5 11  1  0  0  0
  5 13  1  0  0  0
  5 14  1  0  0  0
  6  8  1  0  0  0
  6 30  1  0  0  0
  6 31  1  0  0  0
  6 53  1  0  0  0
  7  9  1  0  0  0
  7 32  1  0  0  0
  7 33  1  0  0  0
  7 53  1  0  0  0
  8  9  1  0  0  0
  8 36  1  0  0  0
  8 37  1  0  0  0
  9 38  1  0  0  0
  9 39  1  0  0  0
 10 11  1  0  0  0
 10 34  1  0  0  0
 10 35  1  0  0  0
 10 53  1  0  0  0
 11 12  1  0  0  0
 11 40  1  0  0  0
 12 15  2  0  0  0
 12 16  1  0  0  0
 13 17  1  0  0  0
 14 18  2  0  0  0
 14 41  1  0  0  0
 15 20  1  0  0  0
 15 42  1  0  0  0
 16 21  2  0  0  0
 16 43  1  0  0  0
 17 19  2  0  0  0
 17 22  1  0  0  0
 18 19  1  0  0  0
 18 44  1  0  0  0
 19 45  1  0  0  0
 20 23  2  0  0  0
 20 46  1  0  0  0
 21 23  1  0  0  0
 21 47  1  0  0  0
 22 24  2  0  0  0
 22 25  1  0  0  0
 23 48  1  0  0  0
 24 26  1  0  0  0
 24 49  1  0  0  0
 25 27  2  0  0  0
 25 50  1  0  0  0
 26 28  2  0  0  0
 26 51  1  0  0  0
 27 28  1  0  0  0
 27 52  1  0  0  0
 28 29  1  0  0  0
 53 54  1  0  0  0
M  CHG  1  53   1
M  END
> <LID>
L021888

> <PC_CID>
10024658

> <Names>


> <CAS_Numbers>


$$$$
18939052
                    3D
 Structure written by MMmdl.
 55 57  0  0  1  0            999 V2000
    6.1551    2.5634    0.2959 Cl  0  0  0  0  0  0
    6.9669    0.9237   -2.3160 Cl  0  0  0  0  0  0
    0.0906   -3.3868    0.5410 F   0  0  0  0  0  0
   -0.9436   -3.9038    2.3768 F   0  0  0  0  0  0
   -5.6204   -2.0358   -2.1855 O   0  0  0  0  0  0
    0.9156    0.7569   -0.3177 O   0  0  0  0  0  0
   -0.3235   -0.5654    1.0478 N   0  0  0  0  0  0
   -4.4320   -0.5994   -0.6411 C   0  0  0  0  0  0
   -3.5447    0.2148   -2.6972 C   0  0  0  0  0  0
   -5.5306   -0.7053   -1.7151 C   0  0  1  0  0  0
   -5.0620    0.2085   -2.8484 C   0  0  0  0  0  0
   -1.9527   -0.2861   -0.8575 C   0  0  0  0  0  0
   -1.6323   -0.0053    0.6364 C   0  0  2  0  0  0
   -1.8135    1.4510    1.0768 C   0  0  0  0  0  0
   -0.4208   -1.6351    2.0574 C   0  0  0  0  0  0
    0.8591   -0.1380    0.5272 C   0  0  0  0  0  0
   -2.2090    1.7180    2.4062 C   0  0  0  0  0  0
   -1.5864    2.5370    0.1985 C   0  0  0  0  0  0
    2.1756   -0.7845    1.0064 C   0  0  0  0  0  0
   -0.8186   -2.9796    1.4258 C   0  0  0  0  0  0
   -2.3851    3.0429    2.8491 C   0  0  0  0  0  0
   -1.7620    3.8620    0.6416 C   0  0  0  0  0  0
    3.3777   -0.3516    0.1793 C   0  0  0  0  0  0
   -2.1632    4.1160    1.9663 C   0  0  0  0  0  0
    4.1369    0.7738    0.5640 C   0  0  0  0  0  0
    3.7413   -1.0751   -0.9757 C   0  0  0  0  0  0
    5.2491    1.1785   -0.2006 C   0  0  0  0  0  0
    4.8528   -0.6731   -1.7410 C   0  0  0  0  0  0
    5.6086    0.4524   -1.3576 C   0  0  0  0  0  0
   -4.7925   -0.0604    0.2358 H   0  0  0  0  0  0
   -4.1098   -1.5865   -0.3039 H   0  0  0  0  0  0
   -3.0807    1.0907   -3.1519 H   0  0  0  0  0  0
   -3.1247   -0.6758   -3.1683 H   0  0  0  0  0  0
   -6.5065   -0.4015   -1.3343 H   0  0  0  0  0  0
   -5.3931   -0.1145   -3.8364 H   0  0  0  0  0  0
   -5.4455    1.2168   -2.6856 H   0  0  0  0  0  0
   -1.8517   -1.3509   -1.0730 H   0  0  0  0  0  0
   -1.2385    0.2167   -1.5086 H   0  0  0  0  0  0
   -2.4026   -0.5459    1.1877 H   0  0  0  0  0  0
    0.4935   -1.7559    2.6369 H   0  0  0  0  0  0
   -1.1641   -1.3557    2.8055 H   0  0  0  0  0  0
   -5.9765   -2.5804   -1.4994 H   0  0  0  0  0  0
   -2.3802    0.9041    3.0956 H   0  0  0  0  0  0
   -1.2665    2.3710   -0.8189 H   0  0  0  0  0  0
    2.3490   -0.5172    2.0495 H   0  0  0  0  0  0
    2.1030   -1.8710    0.9588 H   0  0  0  0  0  0
   -1.7768   -2.9256    0.9091 H   0  0  0  0  0  0
   -2.6891    3.2360    3.8675 H   0  0  0  0  0  0
   -1.5845    4.6852   -0.0350 H   0  0  0  0  0  0
   -2.2963    5.1327    2.3060 H   0  0  0  0  0  0
    3.8637    1.3336    1.4466 H   0  0  0  0  0  0
    3.1671   -1.9382   -1.2797 H   0  0  0  0  0  0
    5.1252   -1.2302   -2.6253 H   0  0  0  0  0  0
   -3.3124    0.1662   -1.2411 N   0  3  2  0  0  0
   -3.4121    1.1177   -0.9154 H   0  0  0  0  0  0
  1 27  1  0  0  0
  2 29  1  0  0  0
  3 20  1  0  0  0
  4 20  1  0  0  0
  5 10  1  0  0  0
  5 42  1  0  0  0
  6 16  2  0  0  0
  7 13  1  0  0  0
  7 15  1  0  0  0
  7 16  1  0  0  0
  8 10  1  0  0  0
  8 30  1  0  0  0
  8 31  1  0  0  0
  8 54  1  0  0  0
  9 11  1  0  0  0
  9 32  1  0  0  0
  9 33  1  0  0  0
  9 54  1  0  0  0
 10 11  1  0  0  0
 10 34  1  0  0  0
 11 35  1  0  0  0
 11 36  1  0  0  0
 12 13  1  0  0  0
 12 37  1  0  0  0
 12 38  1  0  0  0
 12 54  1  0  0  0
 13 14  1  0  0  0
 13 39  1  0  0  0
 14 17  2  0  0  0
 14 18  1  0  0  0
 15 20  1  0  0  0
 15 40  1  0  0  0
 15 41  1  0  0  0
 16 19  1  0  0  0
 17 21  1  0  0  0
 17 43  1  0  0  0
 18 22  2  0  0  0
 18 44  1  0  0  0
 19 23  1  0  0  0
 19 45  1  0  0  0
 19 46  1  0  0  0
 20 47  1  0  0  0
 21 24  2  0  0  0
 21 48  1  0  0  0
 22 24  1  0  0  0
 22 49  1  0  0  0
 23 25  2  0  0  0
 23 26  1  0  0  0
 24 50  1  0  0  0
 25 27  1  0  0  0
 25 51  1  0  0  0
 26 28  2  0  0  0
 26 52  1  0  0  0
 27 29  2  0  0  0
 28 29  1  0  0  0
 28 53  1  0  0  0
 54 55  1  0  0  0
M  CHG  1  54   1
M  END
> <LID>
L014574

> <PC_CID>
18939052

> <Names>


> <CAS_Numbers>


$$$$
22452703
                    3D
 Structure written by MMmdl.
 49 53  0  0  1  0            999 V2000
   -4.4943   -0.5811   -0.2062 S   0  0  0  0  0  0
   -0.3563   -1.0421   -0.8636 O   0  0  0  0  0  0
   -3.2684    0.4413   -0.7611 O   0  0  0  0  0  0
    0.9145   -3.2917    0.6657 O   0  0  0  0  0  0
   -3.9097   -1.9251   -0.3360 O   0  0  0  0  0  0
   -4.7237   -0.1355    1.1772 O   0  0  0  0  0  0
    1.9390   -3.4876   -1.3894 O   0  0  0  0  0  0
    0.3487    1.2001   -0.6875 C   0  0  1  0  0  0
    0.0616    2.6026   -0.1321 C   0  0  2  0  0  0
    1.4037    3.1703    0.3854 C   0  0  1  0  0  0
   -0.8765    0.2961   -1.0063 C   0  0  2  0  0  0
    1.2510    1.3963   -1.9306 C   0  0  0  0  0  0
    1.0609    0.3356    0.3075 C   0  0  0  0  0  0
    2.0322    2.2786    1.4993 C   0  0  0  0  0  0
    2.5622    2.1326   -1.5815 C   0  0  0  0  0  0
   -2.0654    0.4305   -0.0073 C   0  0  1  0  0  0
    1.9473    0.7647    1.3045 C   0  0  0  0  0  0
   -1.0730    2.6006    0.8689 C   0  0  0  0  0  0
    0.6460   -0.9584    0.0646 C   0  0  0  0  0  0
   -2.0131    1.6443    0.9102 C   0  0  0  0  0  0
    3.5382    4.1333   -0.5036 C   0  0  0  0  0  0
    2.5333   -0.2582    2.0794 C   0  0  0  0  0  0
    1.2643   -1.9745    0.8282 C   0  0  0  0  0  0
    2.2061   -1.6157    1.8282 C   0  0  0  0  0  0
    1.2682   -3.9431   -0.4617 C   0  0  0  0  0  0
    0.7437   -5.3723   -0.4909 C   0  0  0  0  0  0
   -0.3008    3.2443   -0.9373 H   0  0  0  0  0  0
    1.2241    4.1620    0.8034 H   0  0  0  0  0  0
   -1.2243    0.4698   -2.0257 H   0  0  0  0  0  0
    1.4877    0.4356   -2.3905 H   0  0  0  0  0  0
    0.7089    1.9637   -2.6885 H   0  0  0  0  0  0
    3.0666    2.5526    1.7003 H   0  0  0  0  0  0
    1.5007    2.4835    2.4292 H   0  0  0  0  0  0
    3.2345    1.4757   -1.0284 H   0  0  0  0  0  0
    3.0856    2.3941   -2.5019 H   0  0  0  0  0  0
   -2.0551   -0.4277    0.6667 H   0  0  0  0  0  0
   -1.1272    3.4338    1.5542 H   0  0  0  0  0  0
   -2.8042    1.7182    1.6421 H   0  0  0  0  0  0
    4.0251    4.4276   -1.4338 H   0  0  0  0  0  0
    3.3115    5.0440    0.0517 H   0  0  0  0  0  0
    4.2536    3.5462    0.0722 H   0  0  0  0  0  0
    3.2131   -0.0076    2.8805 H   0  0  0  0  0  0
    2.6582   -2.3884    2.4325 H   0  0  0  0  0  0
    1.0518   -5.8745   -1.4081 H   0  0  0  0  0  0
    1.1303   -5.9351    0.3588 H   0  0  0  0  0  0
   -0.3454   -5.3756   -0.4439 H   0  0  0  0  0  0
   -5.6029   -0.3029   -1.1316 O   0  5  0  0  0  0
    2.3042    3.3676   -0.7940 N   0  3  2  0  0  0
    1.7736    3.9630   -1.4141 H   0  0  0  0  0  0
  1  3  1  0  0  0
  1  5  2  0  0  0
  1  6  2  0  0  0
  1 47  1  0  0  0
  2 11  1  0  0  0
  2 19  1  0  0  0
  3 16  1  0  0  0
  4 23  1  0  0  0
  4 25  1  0  0  0
  7 25  2  0  0  0
  8  9  1  0  0  0
  8 11  1  0  0  0
  8 12  1  0  0  0
  8 13  1  0  0  0
  9 10  1  0  0  0
  9 18  1  0  0  0
  9 27  1  0  0  0
 10 14  1  0  0  0
 10 28  1  0  0  0
 10 48  1  0  0  0
 11 16  1  0  0  0
 11 29  1  0  0  0
 12 15  1  0  0  0
 12 30  1  0  0  0
 12 31  1  0  0  0
 13 17  2  0  0  0
 13 19  1  0  0  0
 14 17  1  0  0  0
 14 32  1  0  0  0
 14 33  1  0  0  0
 15 34  1  0  0  0
 15 35  1  0  0  0
 15 48  1  0  0  0
 16 20  1  0  0  0
 16 36  1  0  0  0
 17 22  1  0  0  0
 18 20  2  0  0  0
 18 37  1  0  0  0
 19 23  2  0  0  0
 20 38  1  0  0  0
 21 39  1  0  0  0
 21 40  1  0  0  0
 21 41  1  0  0  0
 21 48  1  0  0  0
 22 24  2  0  0  0
 22 42  1  0  0  0
 23 24  1  0  0  0
 24 43  1  0  0  0
 25 26  1  0  0  0
 26 44  1  0  0  0
 26 45  1  0  0  0
 26 46  1  0  0  0
 48 49  1  0  0  0
M  CHG  2  47  -1  48   1
M  END
> <LID>
L021553

> <PC_CID>
22452703

> <Names>


> <CAS_Numbers>


$$$$
18939048
                    3D
 Structure written by MMmdl.
 61 64  0  0  1  0            999 V2000
    4.3596   -3.6927    1.2620 Cl  0  0  0  0  0  0
    4.9745   -3.3188   -1.8444 Cl  0  0  0  0  0  0
   -4.1632   -0.4331   -3.6744 O   0  0  0  0  0  0
    1.0517    2.6856    0.2282 O   0  0  0  0  0  0
    0.0395    0.7913    0.9741 N   0  0  0  0  0  0
    0.6688   -2.8465   -1.2427 N   0  0  0  0  0  0
   -3.6625    0.4465   -1.4755 C   0  0  0  0  0  0
   -2.9205    2.2709   -2.8182 C   0  0  0  0  0  0
   -4.5658    0.5293   -2.7198 C   0  0  1  0  0  0
   -4.3342    1.9334   -3.2795 C   0  0  0  0  0  0
   -1.4070    1.4464   -1.0289 C   0  0  0  0  0  0
   -1.3225    1.1393    0.4934 C   0  0  2  0  0  0
   -1.9976    2.1923    1.3760 C   0  0  0  0  0  0
    0.0839   -0.4802    1.7253 C   0  0  0  0  0  0
    1.1219    1.6051    0.8118 C   0  0  0  0  0  0
   -2.7866    1.7733    2.4702 C   0  0  0  0  0  0
   -1.8491    3.5770    1.1283 C   0  0  0  0  0  0
    2.5064    1.2122    1.3655 C   0  0  0  0  0  0
    0.2350   -1.7477    0.8883 C   0  0  0  0  0  0
   -3.4207    2.7187    3.2991 C   0  0  0  0  0  0
   -2.4830    4.5223    1.9573 C   0  0  0  0  0  0
    3.1534    0.0872    0.5703 C   0  0  0  0  0  0
   -3.2698    4.0941    3.0426 C   0  0  0  0  0  0
    0.1393   -3.0047    1.5207 C   0  0  0  0  0  0
    0.5028   -1.7324   -0.5005 C   0  0  0  0  0  0
    3.4710   -1.1340    1.2022 C   0  0  0  0  0  0
    3.4442    0.2538   -0.8011 C   0  0  0  0  0  0
    0.3116   -4.1732    0.7555 C   0  0  0  0  0  0
    0.5748   -4.0401   -0.6211 C   0  0  0  0  0  0
    4.0303   -2.1960    0.4649 C   0  0  0  0  0  0
    4.0130   -0.8025   -1.5379 C   0  0  0  0  0  0
    4.3000   -2.0310   -0.9112 C   0  0  0  0  0  0
   -3.0699   -0.4704   -1.4746 H   0  0  0  0  0  0
   -4.2567    0.4474   -0.5610 H   0  0  0  0  0  0
   -2.7337    3.3449   -2.7871 H   0  0  0  0  0  0
   -2.1951    1.8191   -3.4973 H   0  0  0  0  0  0
   -5.6158    0.3633   -2.4760 H   0  0  0  0  0  0
   -4.4596    1.9995   -4.3612 H   0  0  0  0  0  0
   -5.0395    2.6290   -2.8225 H   0  0  0  0  0  0
   -0.9610    0.6432   -1.6145 H   0  0  0  0  0  0
   -0.8490    2.3463   -1.2816 H   0  0  0  0  0  0
   -1.9315    0.2419    0.6102 H   0  0  0  0  0  0
    0.8637   -0.4829    2.4839 H   0  0  0  0  0  0
   -0.8297   -0.5810    2.3128 H   0  0  0  0  0  0
   -4.3617   -1.2961   -3.3427 H   0  0  0  0  0  0
   -2.9115    0.7213    2.6812 H   0  0  0  0  0  0
   -1.2478    3.9311    0.3050 H   0  0  0  0  0  0
    3.1662    2.0789    1.3049 H   0  0  0  0  0  0
    2.4499    0.9731    2.4270 H   0  0  0  0  0  0
   -4.0224    2.3883    4.1331 H   0  0  0  0  0  0
   -2.3634    5.5778    1.7614 H   0  0  0  0  0  0
   -3.7550    4.8197    3.6789 H   0  0  0  0  0  0
   -0.0557   -3.0738    2.5810 H   0  0  0  0  0  0
    0.6196   -0.8057   -1.0391 H   0  0  0  0  0  0
    3.2607   -1.2714    2.2527 H   0  0  0  0  0  0
    3.2194    1.1879   -1.2954 H   0  0  0  0  0  0
    0.2479   -5.1492    1.2133 H   0  0  0  0  0  0
    0.7153   -4.9149   -1.2385 H   0  0  0  0  0  0
    4.2215   -0.6720   -2.5896 H   0  0  0  0  0  0
   -2.8039    1.6563   -1.4817 N   0  3  2  0  0  0
   -3.2290    2.3112   -0.8401 H   0  0  0  0  0  0
  1 30  1  0  0  0
  2 32  1  0  0  0
  3  9  1  0  0  0
  3 45  1  0  0  0
  4 15  2  0  0  0
  5 12  1  0  0  0
  5 14  1  0  0  0
  5 15  1  0  0  0
  6 25  1  0  0  0
  6 29  2  0  0  0
  7  9  1  0  0  0
  7 33  1  0  0  0
  7 34  1  0  0  0
  7 60  1  0  0  0
  8 10  1  0  0  0
  8 35  1  0  0  0
  8 36  1  0  0  0
  8 60  1  0  0  0
  9 10  1  0  0  0
  9 37  1  0  0  0
 10 38  1  0  0  0
 10 39  1  0  0  0
 11 12  1  0  0  0
 11 40  1  0  0  0
 11 41  1  0  0  0
 11 60  1  0  0  0
 12 13  1  0  0  0
 12 42  1  0  0  0
 13 16  2  0  0  0
 13 17  1  0  0  0
 14 19  1  0  0  0
 14 43  1  0  0  0
 14 44  1  0  0  0
 15 18  1  0  0  0
 16 20  1  0  0  0
 16 46  1  0  0  0
 17 21  2  0  0  0
 17 47  1  0  0  0
 18 22  1  0  0  0
 18 48  1  0  0  0
 18 49  1  0  0  0
 19 24  1  0  0  0
 19 25  2  0  0  0
 20 23  2  0  0  0
 20 50  1  0  0  0
 21 23  1  0  0  0
 21 51  1  0  0  0
 22 26  2  0  0  0
 22 27  1  0  0  0
 23 52  1  0  0  0
 24 28  2  0  0  0
 24 53  1  0  0  0
 25 54  1  0  0  0
 26 30  1  0  0  0
 26 55  1  0  0  0
 27 31  2  0  0  0
 27 56  1  0  0  0
 28 29  1  0  0  0
 28 57  1  0  0  0
 29 58  1  0  0  0
 30 32  2  0  0  0
 31 32  1  0  0  0
 31 59  1  0  0  0
 60 61  1  0  0  0
M  CHG  1  60   1
M  END
> <LID>
L014572

> <PC_CID>
18939048

> <Names>


> <CAS_Numbers>


$$$$
13493
                    3D
 Structure written by MMmdl.
 58 60  0  0  1  0            999 V2000
    6.2831   -0.2871   -0.0119 O   0  0  0  0  0  0
   -1.5114    6.0122   -0.3661 O   0  5  0  0  0  0
   -3.6428    5.7316   -0.1428 O   0  0  0  0  0  0
   -1.4920   -0.2421   -0.8234 N   0  0  0  0  0  0
    0.3031    1.1540   -0.9218 N   0  0  0  0  0  0
   -2.5068    5.2976   -0.3044 N   0  3  0  0  0  0
   -2.2773   -1.4659   -0.8284 C   0  0  0  0  0  0
   -2.4937   -1.9997    0.5999 C   0  0  0  0  0  0
   -0.1482   -0.1023   -0.9558 C   0  0  0  0  0  0
   -1.9908    1.0478   -0.6725 C   0  0  0  0  0  0
   -0.8492    1.8920   -0.7394 C   0  0  0  0  0  0
    0.7514   -1.2945   -1.1409 C   0  0  0  0  0  0
   -3.1013   -4.0053    1.9040 C   0  0  0  0  0  0
   -4.6790   -3.1115    0.2071 C   0  0  0  0  0  0
   -3.2812    1.5746   -0.4879 C   0  0  0  0  0  0
    2.2137   -1.0318   -0.8196 C   0  0  0  0  0  0
   -1.0354    3.2865   -0.6171 C   0  0  0  0  0  0
   -2.3275    3.8371   -0.4309 C   0  0  0  0  0  0
   -3.4447    2.9681   -0.3676 C   0  0  0  0  0  0
   -3.4920   -5.4863    1.7862 C   0  0  0  0  0  0
   -4.9615   -3.8547   -1.1036 C   0  0  0  0  0  0
    3.1261   -0.7304   -1.8505 C   0  0  0  0  0  0
    2.6669   -1.0874    0.5138 C   0  0  0  0  0  0
    4.4793   -0.4866   -1.5474 C   0  0  0  0  0  0
    4.0208   -0.8431    0.8157 C   0  0  0  0  0  0
    4.9434   -0.5393   -0.2171 C   0  0  0  0  0  0
    6.7798   -0.3278    1.3188 C   0  0  0  0  0  0
    8.2778   -0.0158    1.2921 C   0  0  0  0  0  0
   -3.2287   -1.2515   -1.3155 H   0  0  0  0  0  0
   -1.7815   -2.2119   -1.4501 H   0  0  0  0  0  0
   -1.5136   -2.1578    1.0519 H   0  0  0  0  0  0
   -2.9996   -1.2572    1.2195 H   0  0  0  0  0  0
    0.6599   -1.6420   -2.1705 H   0  0  0  0  0  0
    0.4094   -2.1107   -0.5044 H   0  0  0  0  0  0
   -2.0589   -3.9661    2.2229 H   0  0  0  0  0  0
   -3.6812   -3.5137    2.6868 H   0  0  0  0  0  0
   -5.3549   -3.4781    0.9807 H   0  0  0  0  0  0
   -4.9333   -2.0574    0.0876 H   0  0  0  0  0  0
   -4.1393    0.9209   -0.4392 H   0  0  0  0  0  0
   -0.1689    3.9292   -0.6681 H   0  0  0  0  0  0
   -4.4395    3.3655   -0.2264 H   0  0  0  0  0  0
   -4.5469   -5.6149    1.5442 H   0  0  0  0  0  0
   -3.3101   -6.0066    2.7269 H   0  0  0  0  0  0
   -2.9073   -5.9881    1.0147 H   0  0  0  0  0  0
   -4.7705   -4.9235   -1.0025 H   0  0  0  0  0  0
   -4.3401   -3.4786   -1.9168 H   0  0  0  0  0  0
   -6.0034   -3.7323   -1.4005 H   0  0  0  0  0  0
    2.7915   -0.6810   -2.8764 H   0  0  0  0  0  0
    1.9753   -1.3145    1.3119 H   0  0  0  0  0  0
    5.1698   -0.2550   -2.3450 H   0  0  0  0  0  0
    4.3266   -0.8941    1.8495 H   0  0  0  0  0  0
    6.2652    0.4072    1.9396 H   0  0  0  0  0  0
    6.6207   -1.3155    1.7543 H   0  0  0  0  0  0
    8.6983   -0.0371    2.2977 H   0  0  0  0  0  0
    8.8185   -0.7445    0.6877 H   0  0  0  0  0  0
    8.4641    0.9730    0.8722 H   0  0  0  0  0  0
   -3.2574   -3.2747    0.6188 N   0  3  0  0  0  0
   -2.8225   -3.8626   -0.0782 H   0  0  0  0  0  0
  1 26  1  0  0  0
  1 27  1  0  0  0
  2  6  1  0  0  0
  3  6  2  0  0  0
  4  7  1  0  0  0
  4  9  1  0  0  0
  4 10  1  0  0  0
  5  9  2  0  0  0
  5 11  1  0  0  0
  6 18  1  0  0  0
  7  8  1  0  0  0
  7 29  1  0  0  0
  7 30  1  0  0  0
  8 31  1  0  0  0
  8 32  1  0  0  0
  8 57  1  0  0  0
  9 12  1  0  0  0
 10 11  2  0  0  0
 10 15  1  0  0  0
 11 17  1  0  0  0
 12 16  1  0  0  0
 12 33  1  0  0  0
 12 34  1  0  0  0
 13 20  1  0  0  0
 13 35  1  0  0  0
 13 36  1  0  0  0
 13 57  1  0  0  0
 14 21  1  0  0  0
 14 37  1  0  0  0
 14 38  1  0  0  0
 14 57  1  0  0  0
 15 19  2  0  0  0
 15 39  1  0  0  0
 16 22  2  0  0  0
 16 23  1  0  0  0
 17 18  2  0  0  0
 17 40  1  0  0  0
 18 19  1  0  0  0
 19 41  1  0  0  0
 20 42  1  0  0  0
 20 43  1  0  0  0
 20 44  1  0  0  0
 21 45  1  0  0  0
 21 46  1  0  0  0
 21 47  1  0  0  0
 22 24  1  0  0  0
 22 48  1  0  0  0
 23 25  2  0  0  0
 23 49  1  0  0  0
 24 26  2  0  0  0
 24 50  1  0  0  0
 25 26  1  0  0  0
 25 51  1  0  0  0
 27 28  1  0  0  0
 27 52  1  0  0  0
 27 53  1  0  0  0
 28 54  1  0  0  0
 28 55  1  0  0  0
 28 56  1  0  0  0
 57 58  1  0  0  0
M  CHG  3   2  -1   6   1  57   1
M  END
> <LID>
L000697

> <PC_CID>
13493

> <Names>
etonitazene

> <CAS_Numbers>
911-65-9

$$$$
128563
                    3D
 Structure written by MMmdl.
 59 62  0  0  1  0            999 V2000
    3.3833    2.0234    0.2104 O   0  0  0  0  0  0
   -2.2619   -3.3086    0.3590 O   0  0  0  0  0  0
   -0.1858   -1.9678    1.5043 O   0  0  0  0  0  0
    2.3986    4.0460    0.5210 O   0  0  0  0  0  0
   -4.2596    2.0992   -1.4513 O   0  0  0  0  0  0
   -5.2823    0.8345    0.1580 O   0  0  0  0  0  0
    6.0034   -1.5859   -0.9801 O   0  0  0  0  0  0
   -0.7760   -4.3863   -1.0266 O   0  0  0  0  0  0
   -1.8635    1.0025    0.4689 C   0  0  1  0  0  0
    0.8130    0.7414    0.7748 C   0  0  2  0  0  0
   -0.5598    0.1290    0.2944 C   0  0  1  0  0  0
    0.9304    2.1532    0.1473 C   0  0  1  0  0  0
   -1.5683    2.4413   -0.0391 C   0  0  0  0  0  0
   -2.9756    0.3385   -0.4319 C   0  0  1  0  0  0
   -0.2670    3.0522    0.5018 C   0  0  0  0  0  0
    1.9860   -0.0472    0.1426 C   0  0  0  0  0  0
   -0.8296   -1.3478    0.6584 C   0  0  0  0  0  0
   -3.2395   -1.1386   -0.0454 C   0  0  0  0  0  0
   -2.3687    1.0873    1.9400 C   0  0  0  0  0  0
    0.9926    0.7665    2.3233 C   0  0  0  0  0  0
   -1.9718   -2.0012   -0.1318 C   0  0  2  0  0  0
    3.3522    0.6097    0.4235 C   0  0  1  0  0  0
    2.3025    2.8317    0.3511 C   0  0  0  0  0  0
   -4.3040    1.1166   -0.5363 C   0  0  0  0  0  0
    4.4455   -0.0758   -0.3572 C   0  0  0  0  0  0
    5.0232    0.3316   -1.5952 C   0  0  0  0  0  0
    5.0775   -1.2484   -0.0421 C   0  0  0  0  0  0
   -1.6295   -4.3899   -0.1396 C   0  0  0  0  0  0
   -5.4013    2.9118   -1.6605 C   0  0  0  0  0  0
    5.9578   -0.6089   -1.9226 C   0  0  0  0  0  0
   -2.0815   -5.6833    0.5244 C   0  0  0  0  0  0
   -0.4361    0.0750   -0.7880 H   0  0  0  0  0  0
    0.8793    2.0199   -0.9343 H   0  0  0  0  0  0
   -2.3937    3.1102    0.2076 H   0  0  0  0  0  0
   -1.5052    2.4330   -1.1283 H   0  0  0  0  0  0
   -2.5870    0.3196   -1.4511 H   0  0  0  0  0  0
   -0.1459    4.0406    0.0565 H   0  0  0  0  0  0
   -0.3262    3.2151    1.5773 H   0  0  0  0  0  0
    1.8397   -0.1090   -0.9373 H   0  0  0  0  0  0
    2.0137   -1.0764    0.4994 H   0  0  0  0  0  0
   -3.9948   -1.5641   -0.7079 H   0  0  0  0  0  0
   -3.6573   -1.2019    0.9605 H   0  0  0  0  0  0
   -3.3878    1.4660    2.0001 H   0  0  0  0  0  0
   -2.3617    0.1221    2.4455 H   0  0  0  0  0  0
   -1.7918    1.7771    2.5478 H   0  0  0  0  0  0
    1.0454   -0.2318    2.7528 H   0  0  0  0  0  0
    1.9098    1.2687    2.6267 H   0  0  0  0  0  0
    0.2012    1.2936    2.8408 H   0  0  0  0  0  0
   -1.6660   -2.0514   -1.1779 H   0  0  0  0  0  0
    3.5956    0.4566    1.4748 H   0  0  0  0  0  0
    4.7824    1.2101   -2.1755 H   0  0  0  0  0  0
    4.9904   -1.9428    0.7806 H   0  0  0  0  0  0
   -5.1919    3.6536   -2.4310 H   0  0  0  0  0  0
   -6.2516    2.3118   -1.9872 H   0  0  0  0  0  0
   -5.6757    3.4390   -0.7459 H   0  0  0  0  0  0
    6.6413   -0.7323   -2.7497 H   0  0  0  0  0  0
   -1.5604   -6.5378    0.0923 H   0  0  0  0  0  0
   -1.8695   -5.6531    1.5932 H   0  0  0  0  0  0
   -3.1533   -5.8254    0.3862 H   0  0  0  0  0  0
  1 22  1  0  0  0
  1 23  1  0  0  0
  2 21  1  0  0  0
  2 28  1  0  0  0
  3 17  2  0  0  0
  4 23  2  0  0  0
  5 24  1  0  0  0
  5 29  1  0  0  0
  6 24  2  0  0  0
  7 27  1  0  0  0
  7 30  1  0  0  0
  8 28  2  0  0  0
  9 11  1  0  0  0
  9 13  1  0  0  0
  9 14  1  0  0  0
  9 19  1  0  0  0
 10 11  1  0  0  0
 10 12  1  0  0  0
 10 16  1  0  0  0
 10 20  1  0  0  0
 11 17  1  0  0  0
 11 32  1  0  0  0
 12 15  1  0  0  0
 12 23  1  0  0  0
 12 33  1  0  0  0
 13 15  1  0  0  0
 13 34  1  0  0  0
 13 35  1  0  0  0
 14 18  1  0  0  0
 14 24  1  0  0  0
 14 36  1  0  0  0
 15 37  1  0  0  0
 15 38  1  0  0  0
 16 22  1  0  0  0
 16 39  1  0  0  0
 16 40  1  0  0  0
 17 21  1  0  0  0
 18 21  1  0  0  0
 18 41  1  0  0  0
 18 42  1  0  0  0
 19 43  1  0  0  0
 19 44  1  0  0  0
 19 45  1  0  0  0
 20 46  1  0  0  0
 20 47  1  0  0  0
 20 48  1  0  0  0
 21 49  1  0  0  0
 22 25  1  0  0  0
 22 50  1  0  0  0
 25 26  1  0  0  0
 25 27  2  0  0  0
 26 30  2  0  0  0
 26 51  1  0  0  0
 27 52  1  0  0  0
 28 31  1  0  0  0
 29 53  1  0  0  0
 29 54  1  0  0  0
 29 55  1  0  0  0
 30 56  1  0  0  0
 31 57  1  0  0  0
 31 58  1  0  0  0
 31 59  1  0  0  0
M  END
> <LID>
L000741

> <PC_CID>
128563

> <Names>
salvinorin A

> <CAS_Numbers>
83729-01-5

$$$$
18939040
                    3D
 Structure written by MMmdl.
 58 60  0  0  1  0            999 V2000
    6.9154   -0.8932   -1.2366 Cl  0  0  0  0  0  0
    7.3426   -1.8643    1.7707 Cl  0  0  0  0  0  0
   -1.4275    5.0970    1.2830 O   0  0  0  0  0  0
    1.6763    0.5464    0.0623 O   0  0  0  0  0  0
   -1.3344   -0.7819   -3.2123 O   0  0  0  0  0  0
   -0.5073   -2.8796   -2.8178 O   0  0  0  0  0  0
   -0.3383   -0.3752   -0.4467 N   0  0  0  0  0  0
   -1.5869    3.9045   -0.8171 C   0  0  0  0  0  0
   -3.4788    2.9953    0.3276 C   0  0  0  0  0  0
   -2.1812    4.9985    0.0906 C   0  0  1  0  0  0
   -3.5969    4.5130    0.4186 C   0  0  0  0  0  0
   -2.0039    1.4183   -1.0523 C   0  0  0  0  0  0
   -1.1071    0.7910    0.0585 C   0  0  1  0  0  0
   -1.8045    0.4363    1.3743 C   0  0  0  0  0  0
   -1.1426   -1.5166   -0.9320 C   0  0  0  0  0  0
    1.0179   -0.4241   -0.3180 C   0  0  0  0  0  0
   -3.1012   -0.1294    1.4092 C   0  0  0  0  0  0
   -1.1230    0.6603    2.5913 C   0  0  0  0  0  0
    1.7683   -1.7337   -0.6425 C   0  0  0  0  0  0
   -0.9543   -1.8012   -2.4277 C   0  0  0  0  0  0
   -3.7069   -0.4498    2.6394 C   0  0  0  0  0  0
   -1.7285    0.3392    3.8212 C   0  0  0  0  0  0
    3.1678   -1.7646   -0.0449 C   0  0  0  0  0  0
   -3.0218   -0.2147    3.8460 C   0  0  0  0  0  0
    4.2796   -1.3658   -0.8168 C   0  0  0  0  0  0
    3.3615   -2.1953    1.2844 C   0  0  0  0  0  0
    5.5761   -1.3917   -0.2656 C   0  0  0  0  0  0
    4.6561   -2.2226    1.8372 C   0  0  0  0  0  0
   -1.2161   -0.9023   -4.6192 C   0  0  0  0  0  0
    5.7653   -1.8217    1.0665 C   0  0  0  0  0  0
   -0.5915    3.6079   -0.4865 H   0  0  0  0  0  0
   -1.4872    4.2611   -1.8428 H   0  0  0  0  0  0
   -4.4388    2.5019    0.1738 H   0  0  0  0  0  0
   -3.0526    2.6443    1.2640 H   0  0  0  0  0  0
   -2.1948    5.9739   -0.3974 H   0  0  0  0  0  0
   -3.9626    4.8570    1.3872 H   0  0  0  0  0  0
   -4.2924    4.8700   -0.3424 H   0  0  0  0  0  0
   -2.8352    0.7607   -1.3036 H   0  0  0  0  0  0
   -1.4124    1.5043   -1.9643 H   0  0  0  0  0  0
   -0.4191    1.5891    0.3301 H   0  0  0  0  0  0
   -0.5728    5.4460    1.0780 H   0  0  0  0  0  0
   -0.9108   -2.4117   -0.3551 H   0  0  0  0  0  0
   -2.2033   -1.3386   -0.7735 H   0  0  0  0  0  0
   -3.6505   -0.3181    0.4999 H   0  0  0  0  0  0
   -0.1276    1.0805    2.5869 H   0  0  0  0  0  0
    1.2267   -2.5991   -0.2622 H   0  0  0  0  0  0
    1.8422   -1.8478   -1.7241 H   0  0  0  0  0  0
   -4.6986   -0.8773    2.6576 H   0  0  0  0  0  0
   -1.1994    0.5168    4.7460 H   0  0  0  0  0  0
   -3.4867   -0.4614    4.7893 H   0  0  0  0  0  0
    4.1392   -1.0338   -1.8351 H   0  0  0  0  0  0
    2.5173   -2.5023    1.8845 H   0  0  0  0  0  0
    4.7976   -2.5516    2.8562 H   0  0  0  0  0  0
   -1.5650    0.0115   -5.0999 H   0  0  0  0  0  0
   -0.1773   -1.0645   -4.9095 H   0  0  0  0  0  0
   -1.8169   -1.7334   -4.9907 H   0  0  0  0  0  0
   -2.5540    2.7816   -0.8029 N   0  3  2  0  0  0
   -3.1329    2.9634   -1.6105 H   0  0  0  0  0  0
  1 27  1  0  0  0
  2 30  1  0  0  0
  3 10  1  0  0  0
  3 41  1  0  0  0
  4 16  2  0  0  0
  5 20  1  0  0  0
  5 29  1  0  0  0
  6 20  2  0  0  0
  7 13  1  0  0  0
  7 15  1  0  0  0
  7 16  1  0  0  0
  8 10  1  0  0  0
  8 31  1  0  0  0
  8 32  1  0  0  0
  8 57  1  0  0  0
  9 11  1  0  0  0
  9 33  1  0  0  0
  9 34  1  0  0  0
  9 57  1  0  0  0
 10 11  1  0  0  0
 10 35  1  0  0  0
 11 36  1  0  0  0
 11 37  1  0  0  0
 12 13  1  0  0  0
 12 38  1  0  0  0
 12 39  1  0  0  0
 12 57  1  0  0  0
 13 14  1  0  0  0
 13 40  1  0  0  0
 14 17  2  0  0  0
 14 18  1  0  0  0
 15 20  1  0  0  0
 15 42  1  0  0  0
 15 43  1  0  0  0
 16 19  1  0  0  0
 17 21  1  0  0  0
 17 44  1  0  0  0
 18 22  2  0  0  0
 18 45  1  0  0  0
 19 23  1  0  0  0
 19 46  1  0  0  0
 19 47  1  0  0  0
 21 24  2  0  0  0
 21 48  1  0  0  0
 22 24  1  0  0  0
 22 49  1  0  0  0
 23 25  2  0  0  0
 23 26  1  0  0  0
 24 50  1  0  0  0
 25 27  1  0  0  0
 25 51  1  0  0  0
 26 28  2  0  0  0
 26 52  1  0  0  0
 27 30  2  0  0  0
 28 30  1  0  0  0
 28 53  1  0  0  0
 29 54  1  0  0  0
 29 55  1  0  0  0
 29 56  1  0  0  0
 57 58  1  0  0  0
M  CHG  1  57   1
M  END
> <LID>
L014576

> <PC_CID>
18939040

> <Names>


> <CAS_Numbers>


$$$$
19143
                    3D
 Structure written by MMmdl.
 46 49  0  0  1  0            999 V2000
    4.7678    1.4665    1.1335 O   0  0  0  0  0  0
    0.8161   -1.4905    0.4621 C   0  0  2  0  0  0
   -0.0433   -1.9550   -0.7543 C   0  0  2  0  0  0
   -0.9042   -0.7719   -1.2350 C   0  0  2  0  0  0
   -0.1474   -1.0418    1.5849 C   0  0  0  0  0  0
   -4.0402    0.7044    0.3260 C   0  0  0  0  0  0
   -1.1119    0.0662    1.1190 C   0  0  0  0  0  0
   -2.8182    0.6917   -0.5736 C   0  0  0  0  0  0
    0.0131    0.3309   -1.8056 C   0  0  0  0  0  0
    1.6819   -0.2754    0.0580 C   0  0  0  0  0  0
   -5.0884    1.7803    0.1542 C   0  0  0  0  0  0
   -4.2235    1.7656    1.3885 C   0  0  0  0  0  0
    1.2808    0.5840   -1.0026 C   0  0  0  0  0  0
    1.6916   -2.6660    0.9655 C   0  0  0  0  0  0
   -0.9042   -3.2240   -0.5527 C   0  0  0  0  0  0
    2.8596    0.0500    0.7769 C   0  0  0  0  0  0
    2.0634    1.7068   -1.3433 C   0  0  0  0  0  0
    3.6345    1.1740    0.4323 C   0  0  0  0  0  0
    3.2389    2.0010   -0.6322 C   0  0  0  0  0  0
    0.6463   -2.2052   -1.5629 H   0  0  0  0  0  0
   -1.5438   -1.1139   -2.0502 H   0  0  0  0  0  0
    0.4206   -0.6839    2.4448 H   0  0  0  0  0  0
   -0.7240   -1.8909    1.9518 H   0  0  0  0  0  0
   -4.4331   -0.2856    0.5516 H   0  0  0  0  0  0
   -1.8420    0.2464    1.9080 H   0  0  0  0  0  0
   -0.5820    1.0090    0.9801 H   0  0  0  0  0  0
   -3.1605    0.4507   -1.5808 H   0  0  0  0  0  0
   -2.3779    1.6888   -0.6186 H   0  0  0  0  0  0
   -0.5262    1.2669   -1.9489 H   0  0  0  0  0  0
    0.3382    0.0259   -2.8012 H   0  0  0  0  0  0
   -6.1309    1.4896    0.2680 H   0  0  0  0  0  0
   -4.9002    2.5618   -0.5794 H   0  0  0  0  0  0
   -3.4603    2.5366    1.4755 H   0  0  0  0  0  0
   -4.6876    1.4626    2.3249 H   0  0  0  0  0  0
    2.2503   -2.4178    1.8663 H   0  0  0  0  0  0
    1.0943   -3.5341    1.2396 H   0  0  0  0  0  0
    2.4053   -2.9832    0.2044 H   0  0  0  0  0  0
   -0.2930   -4.1084   -0.3770 H   0  0  0  0  0  0
   -1.6056   -3.1300    0.2753 H   0  0  0  0  0  0
   -1.4914   -3.4350   -1.4469 H   0  0  0  0  0  0
    3.1853   -0.5474    1.6130 H   0  0  0  0  0  0
    1.7603    2.3518   -2.1552 H   0  0  0  0  0  0
    3.8307    2.8643   -0.8994 H   0  0  0  0  0  0
    4.9500    0.8487    1.8249 H   0  0  0  0  0  0
   -1.8133   -0.3110   -0.1379 N   0  3  1  0  0  0
   -2.3514   -1.1331    0.0959 H   0  0  0  0  0  0
  1 18  1  0  0  0
  1 44  1  0  0  0
  2  3  1  0  0  0
  2  5  1  0  0  0
  2 10  1  0  0  0
  2 14  1  0  0  0
  3  4  1  0  0  0
  3 15  1  0  0  0
  3 20  1  0  0  0
  4  9  1  0  0  0
  4 21  1  0  0  0
  4 45  1  0  0  0
  5  7  1  0  0  0
  5 22  1  0  0  0
  5 23  1  0  0  0
  6  8  1  0  0  0
  6 11  1  0  0  0
  6 12  1  0  0  0
  6 24  1  0  0  0
  7 25  1  0  0  0
  7 26  1  0  0  0
  7 45  1  0  0  0
  8 27  1  0  0  0
  8 28  1  0  0  0
  8 45  1  0  0  0
  9 13  1  0  0  0
  9 29  1  0  0  0
  9 30  1  0  0  0
 10 13  2  0  0  0
 10 16  1  0  0  0
 11 12  1  0  0  0
 11 31  1  0  0  0
 11 32  1  0  0  0
 12 33  1  0  0  0
 12 34  1  0  0  0
 13 17  1  0  0  0
 14 35  1  0  0  0
 14 36  1  0  0  0
 14 37  1  0  0  0
 15 38  1  0  0  0
 15 39  1  0  0  0
 15 40  1  0  0  0
 16 18  2  0  0  0
 16 41  1  0  0  0
 17 19  2  0  0  0
 17 42  1  0  0  0
 18 19  1  0  0  0
 19 43  1  0  0  0
 45 46  1  0  0  0
M  CHG  1  45   1
M  END
> <LID>
L001209

> <PC_CID>
19143

> <Names>
Cyclazocine

> <CAS_Numbers>
3572-80-3;63903-61-7;7346-09-0

$$$$
44212035
                    3D
 Structure written by MMmdl.
 53 55  0  0  1  0            999 V2000
   -0.9682    2.7368    1.1682 S   0  0  0  0  0  0
   -3.5985   -3.1632   -0.3419 F   0  0  0  0  0  0
   -0.7824   -3.8440    1.0351 O   0  0  0  0  0  0
   -0.8218    1.8629    2.3427 O   0  0  0  0  0  0
   -0.8550    4.1947    1.3223 O   0  0  0  0  0  0
    0.2279    2.2665   -0.0076 N   0  0  0  0  0  0
    0.5914   -2.6784   -0.5775 C   0  0  0  0  0  0
    1.3358   -1.7236    1.4871 C   0  0  0  0  0  0
    0.5309   -3.7551    0.5174 C   0  0  1  0  0  0
    0.3840   -0.2220   -0.2685 C   0  0  0  0  0  0
    1.4730   -3.2386    1.6012 C   0  0  0  0  0  0
    1.0812    1.0723    0.2067 C   0  0  1  0  0  0
    2.5056    1.2492   -0.3217 C   0  0  0  0  0  0
    0.1264    2.8046   -1.3727 C   0  0  0  0  0  0
   -2.6004    2.4004    0.3480 C   0  0  0  0  0  0
    2.8653    0.8631   -1.6345 C   0  0  0  0  0  0
    3.4855    1.8237    0.5175 C   0  0  0  0  0  0
   -2.8839    0.9203    0.1709 C   0  0  0  0  0  0
    4.1855    1.0385   -2.0922 C   0  0  0  0  0  0
    4.8055    1.9987    0.0594 C   0  0  0  0  0  0
    5.1567    1.6043   -1.2451 C   0  0  0  0  0  0
   -2.8918    0.3570   -1.1236 C   0  0  0  0  0  0
   -3.1540    0.1011    1.2883 C   0  0  0  0  0  0
   -3.1359   -1.0193   -1.2959 C   0  0  0  0  0  0
   -3.3943   -1.2760    1.1151 C   0  0  0  0  0  0
   -3.3808   -1.8371   -0.1763 C   0  0  0  0  0  0
    1.2706   -2.9866   -1.3730 H   0  0  0  0  0  0
   -0.3845   -2.5121   -1.0376 H   0  0  0  0  0  0
    0.4551   -1.3983    2.0443 H   0  0  0  0  0  0
    2.2017   -1.1970    1.8898 H   0  0  0  0  0  0
    0.1889   -0.1794   -1.3402 H   0  0  0  0  0  0
   -0.5802   -0.3169    0.2210 H   0  0  0  0  0  0
    0.8305   -4.7367    0.1482 H   0  0  0  0  0  0
    2.4974   -3.5307    1.3658 H   0  0  0  0  0  0
    1.2406   -3.6166    2.5977 H   0  0  0  0  0  0
    1.2073    0.9769    1.2844 H   0  0  0  0  0  0
   -0.4378    3.7373   -1.3722 H   0  0  0  0  0  0
    1.1106    3.0243   -1.7844 H   0  0  0  0  0  0
   -0.3820    2.0964   -2.0265 H   0  0  0  0  0  0
   -1.3568   -4.1835    0.3645 H   0  0  0  0  0  0
   -3.3781    2.8349    0.9763 H   0  0  0  0  0  0
   -2.6317    2.9283   -0.6046 H   0  0  0  0  0  0
    2.1351    0.4382   -2.3063 H   0  0  0  0  0  0
    3.2279    2.1352    1.5195 H   0  0  0  0  0  0
    4.4528    0.7423   -3.0959 H   0  0  0  0  0  0
    5.5485    2.4379    0.7089 H   0  0  0  0  0  0
    6.1688    1.7401   -1.5972 H   0  0  0  0  0  0
   -2.6987    0.9743   -1.9887 H   0  0  0  0  0  0
   -3.1641    0.5227    2.2829 H   0  0  0  0  0  0
   -3.1308   -1.4490   -2.2867 H   0  0  0  0  0  0
   -3.5855   -1.9031    1.9734 H   0  0  0  0  0  0
    1.1516   -1.4523    0.0434 N   0  3  2  0  0  0
    2.0757   -1.3363   -0.3488 H   0  0  0  0  0  0
  1  4  2  0  0  0
  1  5  2  0  0  0
  1  6  1  0  0  0
  1 15  1  0  0  0
  2 26  1  0  0  0
  3  9  1  0  0  0
  3 40  1  0  0  0
  6 12  1  0  0  0
  6 14  1  0  0  0
  7  9  1  0  0  0
  7 27  1  0  0  0
  7 28  1  0  0  0
  7 52  1  0  0  0
  8 11  1  0  0  0
  8 29  1  0  0  0
  8 30  1  0  0  0
  8 52  1  0  0  0
  9 11  1  0  0  0
  9 33  1  0  0  0
 10 12  1  0  0  0
 10 31  1  0  0  0
 10 32  1  0  0  0
 10 52  1  0  0  0
 11 34  1  0  0  0
 11 35  1  0  0  0
 12 13  1  0  0  0
 12 36  1  0  0  0
 13 16  2  0  0  0
 13 17  1  0  0  0
 14 37  1  0  0  0
 14 38  1  0  0  0
 14 39  1  0  0  0
 15 18  1  0  0  0
 15 41  1  0  0  0
 15 42  1  0  0  0
 16 19  1  0  0  0
 16 43  1  0  0  0
 17 20  2  0  0  0
 17 44  1  0  0  0
 18 22  2  0  0  0
 18 23  1  0  0  0
 19 21  2  0  0  0
 19 45  1  0  0  0
 20 21  1  0  0  0
 20 46  1  0  0  0
 21 47  1  0  0  0
 22 24  1  0  0  0
 22 48  1  0  0  0
 23 25  2  0  0  0
 23 49  1  0  0  0
 24 26  2  0  0  0
 24 50  1  0  0  0
 25 26  1  0  0  0
 25 51  1  0  0  0
 52 53  1  0  0  0
M  CHG  1  52   1
M  END
> <LID>
L011380

> <PC_CID>
44212035

> <Names>


> <CAS_Numbers>


$$$$
3081078
                    3D
 Structure written by MMmdl.
 50 51  0  0  1  0            999 V2000
   -5.2377   -2.3036   -2.1559 Cl  0  0  0  0  0  0
   -6.4208    0.6437   -1.8667 Cl  0  0  0  0  0  0
   -0.2488   -0.3556   -0.6101 O   0  0  0  0  0  0
    0.9798   -0.8180    1.2503 N   0  0  0  0  0  0
    2.3282   -0.4876    0.7152 C   0  0  2  0  0  0
    2.3545    0.8280   -0.1216 C   0  0  0  0  0  0
    4.3740    1.9419    0.8607 C   0  0  0  0  0  0
    3.8066    2.3730   -1.4176 C   0  0  0  0  0  0
    5.0467    3.2485    0.4192 C   0  0  0  0  0  0
    5.0643    3.1759   -1.1040 C   0  0  0  0  0  0
    2.9711   -1.7434    0.0415 C   0  0  0  0  0  0
    2.3171   -2.1841   -1.2812 C   0  0  0  0  0  0
    4.4974   -1.6415   -0.1295 C   0  0  0  0  0  0
   -0.1942   -0.7017    0.5704 C   0  0  0  0  0  0
    0.9986   -1.3253    2.6312 C   0  0  0  0  0  0
   -1.5134   -1.0125    1.3097 C   0  0  0  0  0  0
   -2.7438   -0.6042    0.5119 C   0  0  0  0  0  0
   -3.3654   -1.5263   -0.3566 C   0  0  0  0  0  0
   -3.2714    0.6979    0.6381 C   0  0  0  0  0  0
   -4.5032   -1.1514   -1.0984 C   0  0  0  0  0  0
   -4.4088    1.0746   -0.1016 C   0  0  0  0  0  0
   -5.0271    0.1540   -0.9705 C   0  0  0  0  0  0
    2.9428   -0.2638    1.5876 H   0  0  0  0  0  0
    1.9206    0.6587   -1.1061 H   0  0  0  0  0  0
    1.7458    1.5979    0.3557 H   0  0  0  0  0  0
    3.6648    2.1331    1.6676 H   0  0  0  0  0  0
    5.1109    1.2295    1.2326 H   0  0  0  0  0  0
    3.8403    1.9062   -2.4027 H   0  0  0  0  0  0
    2.9353    3.0297   -1.3834 H   0  0  0  0  0  0
    2.8236   -2.5697    0.7387 H   0  0  0  0  0  0
    4.4403    4.0980    0.7368 H   0  0  0  0  0  0
    6.0426    3.3749    0.8452 H   0  0  0  0  0  0
    5.9480    2.6324   -1.4415 H   0  0  0  0  0  0
    5.0703    4.1586   -1.5768 H   0  0  0  0  0  0
    2.8152   -3.0669   -1.6829 H   0  0  0  0  0  0
    1.2706   -2.4537   -1.1478 H   0  0  0  0  0  0
    2.3737   -1.4067   -2.0426 H   0  0  0  0  0  0
    4.9216   -2.6167   -0.3708 H   0  0  0  0  0  0
    4.7773   -0.9688   -0.9392 H   0  0  0  0  0  0
    4.9809   -1.2994    0.7858 H   0  0  0  0  0  0
    0.3967   -2.2282    2.7380 H   0  0  0  0  0  0
    1.9983   -1.5992    2.9701 H   0  0  0  0  0  0
    0.6171   -0.5710    3.3204 H   0  0  0  0  0  0
   -1.5678   -2.0812    1.5199 H   0  0  0  0  0  0
   -1.5384   -0.4932    2.2683 H   0  0  0  0  0  0
   -2.9662   -2.5248   -0.4595 H   0  0  0  0  0  0
   -2.8036    1.4124    1.2997 H   0  0  0  0  0  0
   -4.8071    2.0736   -0.0018 H   0  0  0  0  0  0
    3.7178    1.3671   -0.3398 N   0  3  0  0  0  0
    4.2971    0.5949   -0.6372 H   0  0  0  0  0  0
  1 20  1  0  0  0
  2 22  1  0  0  0
  3 14  2  0  0  0
  4  5  1  0  0  0
  4 14  1  0  0  0
  4 15  1  0  0  0
  5  6  1  0  0  0
  5 11  1  0  0  0
  5 23  1  0  0  0
  6 24  1  0  0  0
  6 25  1  0  0  0
  6 49  1  0  0  0
  7  9  1  0  0  0
  7 26  1  0  0  0
  7 27  1  0  0  0
  7 49  1  0  0  0
  8 10  1  0  0  0
  8 28  1  0  0  0
  8 29  1  0  0  0
  8 49  1  0  0  0
  9 10  1  0  0  0
  9 31  1  0  0  0
  9 32  1  0  0  0
 10 33  1  0  0  0
 10 34  1  0  0  0
 11 12  1  0  0  0
 11 13  1  0  0  0
 11 30  1  0  0  0
 12 35  1  0  0  0
 12 36  1  0  0  0
 12 37  1  0  0  0
 13 38  1  0  0  0
 13 39  1  0  0  0
 13 40  1  0  0  0
 14 16  1  0  0  0
 15 41  1  0  0  0
 15 42  1  0  0  0
 15 43  1  0  0  0
 16 17  1  0  0  0
 16 44  1  0  0  0
 16 45  1  0  0  0
 17 18  2  0  0  0
 17 19  1  0  0  0
 18 20  1  0  0  0
 18 46  1  0  0  0
 19 21  2  0  0  0
 19 47  1  0  0  0
 20 22  2  0  0  0
 21 22  1  0  0  0
 21 48  1  0  0  0
 49 50  1  0  0  0
M  CHG  1  49   1
M  END
> <LID>
L011456

> <PC_CID>
3081078

> <Names>
ICI 197067

> <CAS_Numbers>
115199-69-4;136328-64-8

$$$$
44212037
                    3D
 Structure written by MMmdl.
 55 57  0  0  1  0            999 V2000
   -1.2985    2.3350    1.4671 S   0  0  0  0  0  0
   -0.1674   -4.2355    0.5096 O   0  0  0  0  0  0
   -0.9801    1.4044    2.5612 O   0  0  0  0  0  0
   -1.4134    3.7745    1.7441 O   0  0  0  0  0  0
   -0.0723    2.1657    0.2423 N   0  0  0  0  0  0
   -2.8587    0.3517   -1.9100 N   0  0  0  0  0  0
    0.8919   -2.5904   -0.9113 C   0  0  0  0  0  0
    1.5481   -1.8166    1.2537 C   0  0  0  0  0  0
    1.0841   -3.8075    0.0088 C   0  0  1  0  0  0
    0.3693   -0.2428   -0.2865 C   0  0  0  0  0  0
    1.9452   -3.2857    1.1568 C   0  0  0  0  0  0
    0.9248    1.0699    0.3067 C   0  0  1  0  0  0
    2.2961    1.4723   -0.2382 C   0  0  0  0  0  0
   -0.2615    2.8467   -1.0478 C   0  0  0  0  0  0
   -2.8800    1.8147    0.6394 C   0  0  0  0  0  0
    2.6345    1.2946   -1.6003 C   0  0  0  0  0  0
    3.2454    2.0458    0.6361 C   0  0  0  0  0  0
   -3.0240    0.3028    0.4981 C   0  0  0  0  0  0
    3.9053    1.6740   -2.0740 C   0  0  0  0  0  0
    4.5161    2.4247    0.1620 C   0  0  0  0  0  0
    4.8474    2.2371   -1.1930 C   0  0  0  0  0  0
   -3.0086   -0.3389   -0.7684 C   0  0  0  0  0  0
   -3.1995   -0.4785    1.6617 C   0  0  0  0  0  0
   -3.1349   -1.7414   -0.8474 C   0  0  0  0  0  0
   -3.3223   -1.8777    1.5763 C   0  0  0  0  0  0
   -3.2865   -2.5103    0.3211 C   0  0  0  0  0  0
    1.5406   -2.6641   -1.7847 H   0  0  0  0  0  0
   -0.1338   -2.5216   -1.2791 H   0  0  0  0  0  0
    0.6334   -1.7264    1.8427 H   0  0  0  0  0  0
    2.3179   -1.2097    1.7313 H   0  0  0  0  0  0
    0.1206   -0.1106   -1.3397 H   0  0  0  0  0  0
   -0.5507   -0.5103    0.2235 H   0  0  0  0  0  0
    1.5590   -4.6428   -0.5073 H   0  0  0  0  0  0
    2.9994   -3.3599    0.8861 H   0  0  0  0  0  0
    1.8040   -3.8308    2.0912 H   0  0  0  0  0  0
    1.1012    0.8787    1.3645 H   0  0  0  0  0  0
   -0.9948    3.6475   -0.9536 H   0  0  0  0  0  0
    0.6686    3.2998   -1.3895 H   0  0  0  0  0  0
   -0.6128    2.1466   -1.8049 H   0  0  0  0  0  0
   -0.6712   -4.6043   -0.2004 H   0  0  0  0  0  0
   -3.6965    2.1682    1.2691 H   0  0  0  0  0  0
   -2.9753    2.3493   -0.3030 H   0  0  0  0  0  0
    1.9238    0.8756   -2.2964 H   0  0  0  0  0  0
    3.0023    2.1996    1.6775 H   0  0  0  0  0  0
    4.1566    1.5363   -3.1155 H   0  0  0  0  0  0
    5.2364    2.8615    0.8381 H   0  0  0  0  0  0
    5.8215    2.5293   -1.5570 H   0  0  0  0  0  0
   -3.2316   -0.0054    2.6323 H   0  0  0  0  0  0
   -3.1145   -2.2376   -1.8070 H   0  0  0  0  0  0
   -3.4455   -2.4652    2.4743 H   0  0  0  0  0  0
   -3.3806   -3.5841    0.2543 H   0  0  0  0  0  0
   -3.0491   -0.1091   -2.7887 H   0  0  0  0  0  0
   -3.0086    1.3496   -1.9101 H   0  0  0  0  0  0
    1.2977   -1.3896   -0.1405 N   0  3  2  0  0  0
    2.1899   -1.1032   -0.5186 H   0  0  0  0  0  0
  1  3  2  0  0  0
  1  4  2  0  0  0
  1  5  1  0  0  0
  1 15  1  0  0  0
  2  9  1  0  0  0
  2 40  1  0  0  0
  5 12  1  0  0  0
  5 14  1  0  0  0
  6 22  1  0  0  0
  6 52  1  0  0  0
  6 53  1  0  0  0
  7  9  1  0  0  0
  7 27  1  0  0  0
  7 28  1  0  0  0
  7 54  1  0  0  0
  8 11  1  0  0  0
  8 29  1  0  0  0
  8 30  1  0  0  0
  8 54  1  0  0  0
  9 11  1  0  0  0
  9 33  1  0  0  0
 10 12  1  0  0  0
 10 31  1  0  0  0
 10 32  1  0  0  0
 10 54  1  0  0  0
 11 34  1  0  0  0
 11 35  1  0  0  0
 12 13  1  0  0  0
 12 36  1  0  0  0
 13 16  2  0  0  0
 13 17  1  0  0  0
 14 37  1  0  0  0
 14 38  1  0  0  0
 14 39  1  0  0  0
 15 18  1  0  0  0
 15 41  1  0  0  0
 15 42  1  0  0  0
 16 19  1  0  0  0
 16 43  1  0  0  0
 17 20  2  0  0  0
 17 44  1  0  0  0
 18 22  1  0  0  0
 18 23  2  0  0  0
 19 21  2  0  0  0
 19 45  1  0  0  0
 20 21  1  0  0  0
 20 46  1  0  0  0
 21 47  1  0  0  0
 22 24  2  0  0  0
 23 25  1  0  0  0
 23 48  1  0  0  0
 24 26  1  0  0  0
 24 49  1  0  0  0
 25 26  2  0  0  0
 25 50  1  0  0  0
 26 51  1  0  0  0
 54 55  1  0  0  0
M  CHG  1  54   1
M  END
> <LID>
L011382

> <PC_CID>
44212037

> <Names>


> <CAS_Numbers>


$$$$
44214507
                    3D
 Structure written by MMmdl.
 75 81  0  0  1  0            999 V2000
    7.9469    0.8601    0.0367 O   0  0  0  0  0  0
   12.1687   -0.7789    0.6206 O   0  0  0  0  0  0
   13.9010    1.6808   -1.4318 O   0  5  0  0  0  0
    6.3263    3.4012   -0.0173 O   0  0  0  0  0  0
    7.5214   -1.9629   -0.9366 O   0  0  0  0  0  0
    0.8732   -4.8089   -2.3798 O   0  0  0  0  0  0
   12.8428    2.3201   -0.8336 N   0  3  2  0  0  0
    7.9604   -2.0022    1.2893 N   0  0  0  0  0  0
   10.3080    0.8908    0.1938 C   0  0  2  0  0  0
   11.6153    0.5373    0.9679 C   0  0  2  0  0  0
   12.6307    1.7974    0.6895 C   0  0  1  0  0  0
    9.0303    0.1850    0.7005 C   0  0  2  0  0  0
   10.6575    0.8712   -1.3273 C   0  0  0  0  0  0
    9.7361    2.2441    0.4478 C   0  0  0  0  0  0
   11.1922    0.0778    2.3993 C   0  0  0  0  0  0
   11.5600    2.0996   -1.7286 C   0  0  0  0  0  0
    9.2446   -1.2767    1.1058 C   0  0  1  0  0  0
   11.8447    2.9711    1.4079 C   0  0  0  0  0  0
   10.2085   -1.1743    2.3712 C   0  0  0  0  0  0
   13.2188    3.8158   -0.8946 C   0  0  0  0  0  0
   10.4454    3.3378    0.9208 C   0  0  0  0  0  0
   13.6675    4.2546   -2.2852 C   0  0  0  0  0  0
    8.3777    2.1651    0.1677 C   0  0  0  0  0  0
   14.3381    5.5990   -2.4572 C   0  0  0  0  0  0
   15.1335    4.3337   -2.6506 C   0  0  0  0  0  0
    9.7182    4.5449    1.0007 C   0  0  0  0  0  0
    7.6655    3.3796    0.2384 C   0  0  0  0  0  0
    8.3456    4.5668    0.6270 C   0  0  0  0  0  0
    7.7105   -2.6382    2.5960 C   0  0  0  0  0  0
    7.1375   -2.1746    0.2163 C   0  0  0  0  0  0
    5.7568   -2.5245    0.5377 C   0  0  0  0  0  0
    4.9426   -3.0418   -0.4048 C   0  0  0  0  0  0
    3.5307   -3.4278   -0.2250 C   0  0  0  0  0  0
    2.8234   -3.9370   -1.3358 C   0  0  0  0  0  0
    2.8567   -3.3070    1.0117 C   0  0  0  0  0  0
    1.4712   -4.3243   -1.2363 C   0  0  0  0  0  0
    1.5075   -3.6894    1.1271 C   0  0  0  0  0  0
    0.8147   -4.1957    0.0121 C   0  0  0  0  0  0
   -0.4884   -5.2057   -2.3057 C   0  0  0  0  0  0
   12.6066    1.0492   -0.0279 H   0  0  0  0  0  0
    8.7764    0.5331    1.7131 H   0  0  0  0  0  0
   11.1441   -0.0631   -1.6072 H   0  0  0  0  0  0
    9.7477    0.9052   -1.9274 H   0  0  0  0  0  0
   12.0665   -0.1489    3.0124 H   0  0  0  0  0  0
   10.6858    0.8891    2.9212 H   0  0  0  0  0  0
   11.9071    1.9867   -2.7562 H   0  0  0  0  0  0
   10.9786    3.0212   -1.7101 H   0  0  0  0  0  0
    9.7797   -1.7832    0.3008 H   0  0  0  0  0  0
   12.4448    3.8758    1.4855 H   0  0  0  0  0  0
   11.7389    2.7183    2.4609 H   0  0  0  0  0  0
   10.7772   -2.1010    2.4598 H   0  0  0  0  0  0
    9.6342   -1.0990    3.2941 H   0  0  0  0  0  0
   14.0234    3.9767   -0.1753 H   0  0  0  0  0  0
   12.3555    4.4211   -0.6242 H   0  0  0  0  0  0
   12.9807    3.9946   -3.0871 H   0  0  0  0  0  0
   11.5214   -1.4386    0.8164 H   0  0  0  0  0  0
   15.4098    4.0598   -3.6667 H   0  0  0  0  0  0
   15.8601    4.0714   -1.8841 H   0  0  0  0  0  0
   14.5396    6.1848   -1.5624 H   0  0  0  0  0  0
   14.0878    6.1757   -3.3453 H   0  0  0  0  0  0
   10.1942    5.4424    1.3674 H   0  0  0  0  0  0
    7.7955    5.4938    0.6962 H   0  0  0  0  0  0
    6.9976   -3.4621    2.5563 H   0  0  0  0  0  0
    8.6138   -3.0929    3.0007 H   0  0  0  0  0  0
    7.3396   -1.9033    3.3111 H   0  0  0  0  0  0
    5.9902    2.5483   -0.2481 H   0  0  0  0  0  0
    5.3786   -2.3489    1.5322 H   0  0  0  0  0  0
    5.3365   -3.2026   -1.3991 H   0  0  0  0  0  0
    3.3231   -4.0352   -2.2887 H   0  0  0  0  0  0
    3.3564   -2.9236    1.8875 H   0  0  0  0  0  0
    1.0011   -3.5937    2.0763 H   0  0  0  0  0  0
   -0.2191   -4.4780    0.1405 H   0  0  0  0  0  0
   -0.8125   -5.5628   -3.2831 H   0  0  0  0  0  0
   -0.6281   -6.0208   -1.5943 H   0  0  0  0  0  0
   -1.1329   -4.3700   -2.0299 H   0  0  0  0  0  0
  1 12  1  0  0  0
  1 23  1  0  0  0
  2 10  1  0  0  0
  2 56  1  0  0  0
  3  7  1  0  0  0
  4 27  1  0  0  0
  4 66  1  0  0  0
  5 30  2  0  0  0
  6 36  1  0  0  0
  6 39  1  0  0  0
  7 11  1  0  0  0
  7 16  1  0  0  0
  7 20  1  0  0  0
  8 17  1  0  0  0
  8 29  1  0  0  0
  8 30  1  0  0  0
  9 10  1  0  0  0
  9 12  1  0  0  0
  9 13  1  0  0  0
  9 14  1  0  0  0
 10 11  1  0  0  0
 10 15  1  0  0  0
 11 18  1  0  0  0
 11 40  1  0  0  0
 12 17  1  0  0  0
 12 41  1  0  0  0
 13 16  1  0  0  0
 13 42  1  0  0  0
 13 43  1  0  0  0
 14 21  2  0  0  0
 14 23  1  0  0  0
 15 19  1  0  0  0
 15 44  1  0  0  0
 15 45  1  0  0  0
 16 46  1  0  0  0
 16 47  1  0  0  0
 17 19  1  0  0  0
 17 48  1  0  0  0
 18 21  1  0  0  0
 18 49  1  0  0  0
 18 50  1  0  0  0
 19 51  1  0  0  0
 19 52  1  0  0  0
 20 22  1  0  0  0
 20 53  1  0  0  0
 20 54  1  0  0  0
 21 26  1  0  0  0
 22 24  1  0  0  0
 22 25  1  0  0  0
 22 55  1  0  0  0
 23 27  2  0  0  0
 24 25  1  0  0  0
 24 59  1  0  0  0
 24 60  1  0  0  0
 25 57  1  0  0  0
 25 58  1  0  0  0
 26 28  2  0  0  0
 26 61  1  0  0  0
 27 28  1  0  0  0
 28 62  1  0  0  0
 29 63  1  0  0  0
 29 64  1  0  0  0
 29 65  1  0  0  0
 30 31  1  0  0  0
 31 32  2  0  0  0
 31 67  1  0  0  0
 32 33  1  0  0  0
 32 68  1  0  0  0
 33 34  2  0  0  0
 33 35  1  0  0  0
 34 36  1  0  0  0
 34 69  1  0  0  0
 35 37  2  0  0  0
 35 70  1  0  0  0
 36 38  2  0  0  0
 37 38  1  0  0  0
 37 71  1  0  0  0
 38 72  1  0  0  0
 39 73  1  0  0  0
 39 74  1  0  0  0
 39 75  1  0  0  0
M  CHG  2   3  -1   7   1
M  END
> <LID>
L017894

> <PC_CID>
44214507

> <Names>


> <CAS_Numbers>


$$$$
18914955
                    3D
 Structure written by MMmdl.
 53 56  0  0  1  0            999 V2000
    3.6438    0.2208    3.3385 Cl  0  0  0  0  0  0
    5.2922    2.6429    2.0879 Cl  0  0  0  0  0  0
   -2.4166   -3.5135   -1.2745 S   0  0  0  0  0  0
   -0.3034    0.8409   -1.7176 O   0  0  0  0  0  0
   -0.5944   -1.0746   -0.5237 N   0  0  0  0  0  0
   -2.0556   -0.9497   -0.2751 C   0  0  1  0  0  0
   -2.6024    0.4937   -0.0961 C   0  0  0  0  0  0
    1.6494   -0.4999   -1.5521 C   0  0  2  0  0  0
   -4.1017    0.3160    1.9066 C   0  0  0  0  0  0
   -4.7763    1.7085   -0.0079 C   0  0  0  0  0  0
    2.1509    0.1372   -2.8823 C   0  0  0  0  0  0
   -2.7920   -1.7368   -1.3800 C   0  0  0  0  0  0
    0.1569   -0.2054   -1.2618 C   0  0  0  0  0  0
   -0.1306   -2.4215   -0.1429 C   0  0  0  0  0  0
   -3.6896    1.5675    2.7081 C   0  0  0  0  0  0
   -4.3464    2.9878    0.7331 C   0  0  0  0  0  0
    2.5119    0.1791   -0.5105 C   0  0  0  0  0  0
   -4.4743    2.8053    2.2515 C   0  0  0  0  0  0
    2.9577    1.4049   -2.5202 C   0  0  0  0  0  0
    3.2350    1.2365   -1.0525 C   0  0  0  0  0  0
   -0.6012   -3.4422   -1.1932 C   0  0  0  0  0  0
    2.6316   -0.1507    0.8529 C   0  0  0  0  0  0
    4.1020    2.0123   -0.2643 C   0  0  0  0  0  0
    3.4971    0.6172    1.6633 C   0  0  0  0  0  0
    4.2309    1.6966    1.1064 C   0  0  0  0  0  0
   -2.2617   -1.4531    0.6684 H   0  0  0  0  0  0
   -1.9417    1.0842    0.5385 H   0  0  0  0  0  0
   -2.6194    0.9838   -1.0689 H   0  0  0  0  0  0
    1.8656   -1.5645   -1.6062 H   0  0  0  0  0  0
   -5.1393    0.0709    2.1374 H   0  0  0  0  0  0
   -3.5152   -0.5441    2.2270 H   0  0  0  0  0  0
   -4.6917    1.8425   -1.0871 H   0  0  0  0  0  0
   -5.8323    1.5158    0.1870 H   0  0  0  0  0  0
    2.8353   -0.5707   -3.3517 H   0  0  0  0  0  0
    1.3696    0.3299   -3.6189 H   0  0  0  0  0  0
   -3.8722   -1.6216   -1.2937 H   0  0  0  0  0  0
   -2.5125   -1.3676   -2.3676 H   0  0  0  0  0  0
   -0.5283   -2.6988    0.8342 H   0  0  0  0  0  0
    0.9442   -2.4914    0.0030 H   0  0  0  0  0  0
   -3.8606    1.3961    3.7714 H   0  0  0  0  0  0
   -2.6202    1.7505    2.6025 H   0  0  0  0  0  0
   -3.3177    3.2429    0.4752 H   0  0  0  0  0  0
   -4.9610    3.8283    0.4091 H   0  0  0  0  0  0
   -5.5256    2.6932    2.5203 H   0  0  0  0  0  0
   -4.1133    3.6936    2.7708 H   0  0  0  0  0  0
    2.3632    2.3065   -2.6713 H   0  0  0  0  0  0
    3.8780    1.4900   -3.0987 H   0  0  0  0  0  0
   -0.2239   -4.4364   -0.9534 H   0  0  0  0  0  0
   -0.2114   -3.1829   -2.1782 H   0  0  0  0  0  0
    2.0729   -0.9698    1.2792 H   0  0  0  0  0  0
    4.6569    2.8315   -0.6976 H   0  0  0  0  0  0
   -3.9941    0.5228    0.4346 N   0  3  0  0  0  0
   -4.4520   -0.2688    0.0058 H   0  0  0  0  0  0
  1 24  1  0  0  0
  2 25  1  0  0  0
  3 12  1  0  0  0
  3 21  1  0  0  0
  4 13  2  0  0  0
  5  6  1  0  0  0
  5 13  1  0  0  0
  5 14  1  0  0  0
  6  7  1  0  0  0
  6 12  1  0  0  0
  6 26  1  0  0  0
  7 27  1  0  0  0
  7 28  1  0  0  0
  7 52  1  0  0  0
  8 11  1  0  0  0
  8 13  1  0  0  0
  8 17  1  0  0  0
  8 29  1  0  0  0
  9 15  1  0  0  0
  9 30  1  0  0  0
  9 31  1  0  0  0
  9 52  1  0  0  0
 10 16  1  0  0  0
 10 32  1  0  0  0
 10 33  1  0  0  0
 10 52  1  0  0  0
 11 19  1  0  0  0
 11 34  1  0  0  0
 11 35  1  0  0  0
 12 36  1  0  0  0
 12 37  1  0  0  0
 14 21  1  0  0  0
 14 38  1  0  0  0
 14 39  1  0  0  0
 15 18  1  0  0  0
 15 40  1  0  0  0
 15 41  1  0  0  0
 16 18  1  0  0  0
 16 42  1  0  0  0
 16 43  1  0  0  0
 17 20  1  0  0  0
 17 22  2  0  0  0
 18 44  1  0  0  0
 18 45  1  0  0  0
 19 20  1  0  0  0
 19 46  1  0  0  0
 19 47  1  0  0  0
 20 23  2  0  0  0
 21 48  1  0  0  0
 21 49  1  0  0  0
 22 24  1  0  0  0
 22 50  1  0  0  0
 23 25  1  0  0  0
 23 51  1  0  0  0
 24 25  2  0  0  0
 52 53  1  0  0  0
M  CHG  1  52   1
M  END
> <LID>
L004495

> <PC_CID>
18914955

> <Names>


> <CAS_Numbers>


$$$$
9838141
                    3D
 Structure written by MMmdl.
 40 42  0  0  1  0            999 V2000
    2.2100   -0.4546    1.9044 S   0  0  0  0  0  0
   -4.0300    1.5586   -0.0269 O   0  0  0  0  0  0
    0.5728    0.1630   -1.2166 C   0  0  2  0  0  0
    1.6744   -0.9215   -0.9148 C   0  0  1  0  0  0
    1.6617   -1.5177    0.5188 C   0  0  2  0  0  0
    1.1601    1.5970   -0.9956 C   0  0  0  0  0  0
   -0.7131   -0.0479   -0.3889 C   0  0  0  0  0  0
    0.2730   -2.0839    0.8368 C   0  0  0  0  0  0
   -0.8467   -1.0955    0.5639 C   0  0  0  0  0  0
    0.1942    0.1227   -2.7269 C   0  0  0  0  0  0
    1.2776    2.1415    0.4426 C   0  0  0  0  0  0
    2.7009    2.1367    1.0323 C   0  0  0  0  0  0
    3.3591    0.7594    1.2022 C   0  0  0  0  0  0
   -1.8019    0.8406   -0.5693 C   0  0  0  0  0  0
   -2.0466   -1.2416    1.2919 C   0  0  0  0  0  0
   -2.9942    0.6912    0.1635 C   0  0  0  0  0  0
   -3.1179   -0.3536    1.0941 C   0  0  0  0  0  0
    2.6517   -0.5181   -1.1635 H   0  0  0  0  0  0
    2.3756   -2.3425    0.5444 H   0  0  0  0  0  0
    0.5092    2.3063   -1.5082 H   0  0  0  0  0  0
    2.1144    1.7036   -1.5133 H   0  0  0  0  0  0
    0.2334   -2.4098    1.8774 H   0  0  0  0  0  0
    0.0805   -2.9757    0.2398 H   0  0  0  0  0  0
   -0.3336   -0.7931   -2.9960 H   0  0  0  0  0  0
   -0.4667    0.9403   -3.0151 H   0  0  0  0  0  0
    1.0772    0.2036   -3.3626 H   0  0  0  0  0  0
    0.5719    1.6624    1.1196 H   0  0  0  0  0  0
    0.9577    3.1841    0.4248 H   0  0  0  0  0  0
    3.3519    2.7722    0.4310 H   0  0  0  0  0  0
    2.6523    2.6126    2.0125 H   0  0  0  0  0  0
    2.3374   -2.7189   -1.6600 H   0  0  0  0  0  0
    0.6975   -2.5380   -1.7132 H   0  0  0  0  0  0
    3.8172    0.4059    0.2833 H   0  0  0  0  0  0
    4.1882    0.8633    1.9026 H   0  0  0  0  0  0
   -1.7278    1.6545   -1.2746 H   0  0  0  0  0  0
   -2.1496   -2.0394    2.0129 H   0  0  0  0  0  0
   -4.0308   -0.4737    1.6590 H   0  0  0  0  0  0
   -3.8455    2.2270   -0.6686 H   0  0  0  0  0  0
    1.5840   -2.0717   -1.8432 N   0  3  0  0  0  0
    1.6497   -1.7398   -2.7948 H   0  0  0  0  0  0
  1  5  1  0  0  0
  1 13  1  0  0  0
  2 16  1  0  0  0
  2 38  1  0  0  0
  3  4  1  0  0  0
  3  6  1  0  0  0
  3  7  1  0  0  0
  3 10  1  0  0  0
  4  5  1  0  0  0
  4 18  1  0  0  0
  4 39  1  0  0  0
  5  8  1  0  0  0
  5 19  1  0  0  0
  6 11  1  0  0  0
  6 20  1  0  0  0
  6 21  1  0  0  0
  7  9  2  0  0  0
  7 14  1  0  0  0
  8  9  1  0  0  0
  8 22  1  0  0  0
  8 23  1  0  0  0
  9 15  1  0  0  0
 10 24  1  0  0  0
 10 25  1  0  0  0
 10 26  1  0  0  0
 11 12  1  0  0  0
 11 27  1  0  0  0
 11 28  1  0  0  0
 12 13  1  0  0  0
 12 29  1  0  0  0
 12 30  1  0  0  0
 13 33  1  0  0  0
 13 34  1  0  0  0
 14 16  2  0  0  0
 14 35  1  0  0  0
 15 17  2  0  0  0
 15 36  1  0  0  0
 16 17  1  0  0  0
 17 37  1  0  0  0
 31 39  1  0  0  0
 32 39  1  0  0  0
 39 40  1  0  0  0
M  CHG  1  39   1
M  END
> <LID>
L016169

> <PC_CID>
9838141

> <Names>


> <CAS_Numbers>


$$$$
44212038
                    3D
 Structure written by MMmdl.
 61 63  0  0  1  0            999 V2000
   -0.3673    3.2023    0.4230 S   0  0  0  0  0  0
    0.0126   -4.9848   -0.8748 O   0  0  0  0  0  0
    0.2118    3.0022    1.7602 O   0  0  0  0  0  0
   -0.4188    4.5581   -0.1444 O   0  0  0  0  0  0
    0.5354    2.2235   -0.6933 N   0  0  0  0  0  0
   -3.2563   -0.0260   -0.7332 N   0  0  0  0  0  0
    0.8697   -2.7304   -1.2721 C   0  0  0  0  0  0
    0.6026   -1.8828    0.9513 C   0  0  0  0  0  0
    0.7500   -3.9173   -0.3178 C   0  0  1  0  0  0
    0.6015   -0.2784   -0.9771 C   0  0  0  0  0  0
    0.0378   -3.3048    0.8824 C   0  0  0  0  0  0
    1.1578    0.9609   -0.2352 C   0  0  1  0  0  0
    2.6823    1.0424   -0.2510 C   0  0  0  0  0  0
   -2.0892    2.5046    0.3343 C   0  0  0  0  0  0
    0.3190    2.4044   -2.1378 C   0  0  0  0  0  0
    3.4273    0.8159   -1.4315 C   0  0  0  0  0  0
    3.3665    1.3654    0.9415 C   0  0  0  0  0  0
   -2.3186    1.2235    1.1443 C   0  0  0  0  0  0
    4.8330    0.8997   -1.4136 C   0  0  0  0  0  0
    4.7720    1.4495    0.9590 C   0  0  0  0  0  0
   -2.8580    0.0368    0.5618 C   0  0  0  0  0  0
    5.5062    1.2149   -0.2185 C   0  0  0  0  0  0
   -2.0409    1.2387    2.5306 C   0  0  0  0  0  0
   -3.0257   -1.1121    1.3722 C   0  0  0  0  0  0
   -2.2169    0.0905    3.3219 C   0  0  0  0  0  0
   -2.7002   -1.0912    2.7394 C   0  0  0  0  0  0
   -3.0572   -1.2156   -1.5520 C   0  0  0  0  0  0
   -4.3188    0.8366   -1.2362 C   0  0  0  0  0  0
    1.6686   -2.8565   -2.0035 H   0  0  0  0  0  0
   -0.0660   -2.6006   -1.8190 H   0  0  0  0  0  0
   -0.1496   -1.1810    1.3093 H   0  0  0  0  0  0
    1.4441   -1.8392    1.6434 H   0  0  0  0  0  0
    1.7414   -4.2657   -0.0237 H   0  0  0  0  0  0
    0.8681   -0.2483   -2.0334 H   0  0  0  0  0  0
   -0.4851   -0.2748   -0.9414 H   0  0  0  0  0  0
    0.1909   -3.8686    1.8031 H   0  0  0  0  0  0
   -1.0363   -3.2578    0.6956 H   0  0  0  0  0  0
    0.8766    0.8322    0.8089 H   0  0  0  0  0  0
   -2.7647    3.2672    0.7211 H   0  0  0  0  0  0
   -2.3182    2.3917   -0.7215 H   0  0  0  0  0  0
    0.1876    3.4594   -2.3766 H   0  0  0  0  0  0
    1.1721    2.0454   -2.7114 H   0  0  0  0  0  0
   -0.5745    1.8685   -2.4589 H   0  0  0  0  0  0
    0.5038   -5.3561   -1.5924 H   0  0  0  0  0  0
    2.9348    0.5777   -2.3616 H   0  0  0  0  0  0
    2.8150    1.5541    1.8513 H   0  0  0  0  0  0
    5.3958    0.7247   -2.3188 H   0  0  0  0  0  0
    5.2866    1.6969    1.8758 H   0  0  0  0  0  0
    6.5843    1.2808   -0.2059 H   0  0  0  0  0  0
   -1.6929    2.1413    3.0089 H   0  0  0  0  0  0
   -3.4333   -2.0223    0.9570 H   0  0  0  0  0  0
   -1.9884    0.1202    4.3772 H   0  0  0  0  0  0
   -2.8426   -1.9749    3.3439 H   0  0  0  0  0  0
   -2.8310   -0.9346   -2.5810 H   0  0  0  0  0  0
   -2.2314   -1.8225   -1.1813 H   0  0  0  0  0  0
   -3.9555   -1.8340   -1.5553 H   0  0  0  0  0  0
   -5.1918    0.2468   -1.5180 H   0  0  0  0  0  0
   -4.6401    1.5598   -0.4859 H   0  0  0  0  0  0
   -3.9804    1.3826   -2.1171 H   0  0  0  0  0  0
    1.1029   -1.5528   -0.4068 N   0  3  2  0  0  0
    2.1058   -1.4598   -0.3223 H   0  0  0  0  0  0
  1  3  2  0  0  0
  1  4  2  0  0  0
  1  5  1  0  0  0
  1 14  1  0  0  0
  2  9  1  0  0  0
  2 44  1  0  0  0
  5 12  1  0  0  0
  5 15  1  0  0  0
  6 21  1  0  0  0
  6 27  1  0  0  0
  6 28  1  0  0  0
  7  9  1  0  0  0
  7 29  1  0  0  0
  7 30  1  0  0  0
  7 60  1  0  0  0
  8 11  1  0  0  0
  8 31  1  0  0  0
  8 32  1  0  0  0
  8 60  1  0  0  0
  9 11  1  0  0  0
  9 33  1  0  0  0
 10 12  1  0  0  0
 10 34  1  0  0  0
 10 35  1  0  0  0
 10 60  1  0  0  0
 11 36  1  0  0  0
 11 37  1  0  0  0
 12 13  1  0  0  0
 12 38  1  0  0  0
 13 16  2  0  0  0
 13 17  1  0  0  0
 14 18  1  0  0  0
 14 39  1  0  0  0
 14 40  1  0  0  0
 15 41  1  0  0  0
 15 42  1  0  0  0
 15 43  1  0  0  0
 16 19  1  0  0  0
 16 45  1  0  0  0
 17 20  2  0  0  0
 17 46  1  0  0  0
 18 21  1  0  0  0
 18 23  2  0  0  0
 19 22  2  0  0  0
 19 47  1  0  0  0
 20 22  1  0  0  0
 20 48  1  0  0  0
 21 24  2  0  0  0
 22 49  1  0  0  0
 23 25  1  0  0  0
 23 50  1  0  0  0
 24 26  1  0  0  0
 24 51  1  0  0  0
 25 26  2  0  0  0
 25 52  1  0  0  0
 26 53  1  0  0  0
 27 54  1  0  0  0
 27 55  1  0  0  0
 27 56  1  0  0  0
 28 57  1  0  0  0
 28 58  1  0  0  0
 28 59  1  0  0  0
 60 61  1  0  0  0
M  CHG  1  60   1
M  END
> <LID>
L011383

> <PC_CID>
44212038

> <Names>


> <CAS_Numbers>


$$$$
19362294
                    3D
 Structure written by MMmdl.
 65 69  0  0  1  0            999 V2000
    0.2713    0.6808    2.0903 O   0  0  0  0  0  0
   -1.0531   -2.6843    1.4087 O   0  0  0  0  0  0
    1.1073    0.7585   -0.0192 N   0  0  0  0  0  0
    3.5578    0.1939   -0.0238 C   0  0  1  0  0  0
    2.4558    1.2044    0.3977 C   0  0  1  0  0  0
    4.9423    0.6664    0.4832 C   0  0  0  0  0  0
    2.7790    2.6383   -0.0800 C   0  0  0  0  0  0
    5.2570    2.0854   -0.0188 C   0  0  0  0  0  0
    4.1673    3.0831    0.4082 C   0  0  0  0  0  0
   -0.9486   -0.5052    0.4395 C   0  0  2  0  0  0
    3.2256   -1.5612    1.7944 C   0  0  0  0  0  0
    3.9230   -2.2765   -0.3817 C   0  0  0  0  0  0
    0.1708    0.3922    0.8962 C   0  0  0  0  0  0
    3.2719   -3.0852    1.8097 C   0  0  0  0  0  0
    4.1734   -3.4110    0.6215 C   0  0  0  0  0  0
   -2.0604   -0.0775   -0.5045 C   0  0  0  0  0  0
   -2.3914   -0.1561    0.7419 C   0  0  0  0  0  0
    0.8642    0.6862   -1.4669 C   0  0  0  0  0  0
   -0.4732   -1.9641    0.5673 C   0  0  0  0  0  0
   -2.5822   -0.9232   -1.5920 C   0  0  0  0  0  0
   -2.8329    0.9519    1.6034 C   0  0  0  0  0  0
   -2.1637   -0.6685   -2.9143 C   0  0  0  0  0  0
   -3.1028    0.6804    2.9599 C   0  0  0  0  0  0
   -3.4967   -1.9705   -1.3365 C   0  0  0  0  0  0
   -2.9831    2.2650    1.1037 C   0  0  0  0  0  0
   -2.6475   -1.4599   -3.9742 C   0  0  0  0  0  0
   -3.5201    1.7174    3.8169 C   0  0  0  0  0  0
   -3.9784   -2.7610   -2.3981 C   0  0  0  0  0  0
   -3.4008    3.2998    1.9633 C   0  0  0  0  0  0
   -3.5537   -2.5065   -3.7164 C   0  0  0  0  0  0
   -3.6691    3.0265    3.3189 C   0  0  0  0  0  0
    3.6066    0.1961   -1.1132 H   0  0  0  0  0  0
    2.5068    1.2523    1.4865 H   0  0  0  0  0  0
    4.9743    0.6802    1.5721 H   0  0  0  0  0  0
    5.7281   -0.0149    0.1575 H   0  0  0  0  0  0
    2.0221    3.3315    0.2889 H   0  0  0  0  0  0
    2.7554    2.7087   -1.1669 H   0  0  0  0  0  0
    6.2245    2.4083    0.3668 H   0  0  0  0  0  0
    5.3447    2.0803   -1.1061 H   0  0  0  0  0  0
    4.3975    4.0747    0.0173 H   0  0  0  0  0  0
    4.1614    3.1749    1.4951 H   0  0  0  0  0  0
    4.1184   -1.1826    2.2890 H   0  0  0  0  0  0
    2.3553   -1.1699    2.3207 H   0  0  0  0  0  0
    3.2869   -2.6113   -1.2018 H   0  0  0  0  0  0
    4.8626   -1.9322   -0.8143 H   0  0  0  0  0  0
    2.2725   -3.4898    1.6417 H   0  0  0  0  0  0
    3.6449   -3.4898    2.7509 H   0  0  0  0  0  0
    5.2166   -3.3941    0.9398 H   0  0  0  0  0  0
    3.9706   -4.3963    0.2007 H   0  0  0  0  0  0
    1.7238    0.9830   -2.0646 H   0  0  0  0  0  0
    0.0466    1.3533   -1.7407 H   0  0  0  0  0  0
    0.6095   -0.3237   -1.7854 H   0  0  0  0  0  0
   -1.4736    0.1346   -3.1241 H   0  0  0  0  0  0
   -2.9850   -0.3219    3.3461 H   0  0  0  0  0  0
   -3.8275   -2.1805   -0.3297 H   0  0  0  0  0  0
   -2.7785    2.4878    0.0668 H   0  0  0  0  0  0
   -2.3239   -1.2632   -4.9857 H   0  0  0  0  0  0
   -3.7245    1.5084    4.8567 H   0  0  0  0  0  0
   -4.6731   -3.5639   -2.2000 H   0  0  0  0  0  0
   -3.5148    4.3041    1.5826 H   0  0  0  0  0  0
   -3.9237   -3.1135   -4.5296 H   0  0  0  0  0  0
   -3.9886    3.8212    3.9769 H   0  0  0  0  0  0
    0.4703   -2.3368   -0.1677 O   0  5  0  0  0  0
    3.2105   -1.2082    0.3572 N   0  3  0  0  0  0
    2.2435   -1.3395    0.0815 H   0  0  0  0  0  0
  1 13  2  0  0  0
  2 19  2  0  0  0
  3  5  1  0  0  0
  3 13  1  0  0  0
  3 18  1  0  0  0
  4  5  1  0  0  0
  4  6  1  0  0  0
  4 32  1  0  0  0
  4 64  1  0  0  0
  5  7  1  0  0  0
  5 33  1  0  0  0
  6  8  1  0  0  0
  6 34  1  0  0  0
  6 35  1  0  0  0
  7  9  1  0  0  0
  7 36  1  0  0  0
  7 37  1  0  0  0
  8  9  1  0  0  0
  8 38  1  0  0  0
  8 39  1  0  0  0
  9 40  1  0  0  0
  9 41  1  0  0  0
 10 13  1  0  0  0
 10 16  1  0  0  0
 10 17  1  0  0  0
 10 19  1  0  0  0
 11 14  1  0  0  0
 11 42  1  0  0  0
 11 43  1  0  0  0
 11 64  1  0  0  0
 12 15  1  0  0  0
 12 44  1  0  0  0
 12 45  1  0  0  0
 12 64  1  0  0  0
 14 15  1  0  0  0
 14 46  1  0  0  0
 14 47  1  0  0  0
 15 48  1  0  0  0
 15 49  1  0  0  0
 16 17  2  0  0  0
 16 20  1  0  0  0
 17 21  1  0  0  0
 18 50  1  0  0  0
 18 51  1  0  0  0
 18 52  1  0  0  0
 19 63  1  0  0  0
 20 22  2  0  0  0
 20 24  1  0  0  0
 21 23  2  0  0  0
 21 25  1  0  0  0
 22 26  1  0  0  0
 22 53  1  0  0  0
 23 27  1  0  0  0
 23 54  1  0  0  0
 24 28  2  0  0  0
 24 55  1  0  0  0
 25 29  2  0  0  0
 25 56  1  0  0  0
 26 30  2  0  0  0
 26 57  1  0  0  0
 27 31  2  0  0  0
 27 58  1  0  0  0
 28 30  1  0  0  0
 28 59  1  0  0  0
 29 31  1  0  0  0
 29 60  1  0  0  0
 30 61  1  0  0  0
 31 62  1  0  0  0
 64 65  1  0  0  0
M  CHG  2  63  -1  64   1
M  END
> <LID>
L017504

> <PC_CID>
19362294

> <Names>


> <CAS_Numbers>


$$$$
15697349
                    3D
 Structure written by MMmdl.
 55 58  0  0  1  0            999 V2000
   -7.2940    1.2354    1.4571 F   0  0  0  0  0  0
   -7.6064   -0.0720   -0.2344 F   0  0  0  0  0  0
   -6.7475   -0.8575    1.5939 F   0  0  0  0  0  0
   -0.6681   -0.5433    0.1688 O   0  0  0  0  0  0
    1.0215    0.6743   -0.7224 N   0  0  0  0  0  0
    2.0806   -0.1174   -0.0610 C   0  0  1  0  0  0
    2.5991   -1.1946   -1.0503 C   0  0  0  0  0  0
    4.3213   -2.9627   -1.4051 C   0  0  0  0  0  0
    2.8750   -3.1470    0.4822 C   0  0  0  0  0  0
    4.3579   -4.4099   -0.8942 C   0  0  0  0  0  0
    3.8340   -4.3306    0.5362 C   0  0  0  0  0  0
    3.1947    0.7638    0.5204 C   0  0  0  0  0  0
    1.5254    1.7280   -1.6179 C   0  0  0  0  0  0
    2.3517    2.7555   -0.8377 C   0  0  0  0  0  0
    3.3316    2.1203    0.1315 C   0  0  0  0  0  0
   -0.2946    0.4177   -0.5073 C   0  0  0  0  0  0
    4.0869    0.2364    1.4825 C   0  0  0  0  0  0
    4.3667    2.9116    0.6714 C   0  0  0  0  0  0
   -1.3525    1.3587   -1.1172 C   0  0  0  0  0  0
    5.1187    1.0295    2.0184 C   0  0  0  0  0  0
    5.2634    2.3665    1.6080 C   0  0  0  0  0  0
   -2.7614    1.0590   -0.6255 C   0  0  0  0  0  0
   -3.5944    0.1794   -1.3480 C   0  0  0  0  0  0
   -3.2439    1.6607    0.5556 C   0  0  0  0  0  0
   -4.8979   -0.0971   -0.8921 C   0  0  0  0  0  0
   -4.5476    1.3835    1.0106 C   0  0  0  0  0  0
   -5.3852    0.5070    0.2873 C   0  0  0  0  0  0
   -6.7903    0.1999    0.7845 C   0  0  0  0  0  0
    1.6613   -0.6273    0.8075 H   0  0  0  0  0  0
    1.7645   -1.7274   -1.5092 H   0  0  0  0  0  0
    3.1332   -0.7027   -1.8637 H   0  0  0  0  0  0
    5.3235   -2.5362   -1.4582 H   0  0  0  0  0  0
    3.8942   -2.9289   -2.4088 H   0  0  0  0  0  0
    2.6870   -2.7204    1.4676 H   0  0  0  0  0  0
    1.9181   -3.4716    0.0696 H   0  0  0  0  0  0
    5.3535   -4.8512   -0.9508 H   0  0  0  0  0  0
    3.6881   -5.0272   -1.4947 H   0  0  0  0  0  0
    3.3533   -5.2526    0.8649 H   0  0  0  0  0  0
    4.6544   -4.1141    1.2221 H   0  0  0  0  0  0
    2.1622    1.2618   -2.3690 H   0  0  0  0  0  0
    0.7575    2.2415   -2.1936 H   0  0  0  0  0  0
    1.6838    3.3977   -0.2624 H   0  0  0  0  0  0
    2.8888    3.4034   -1.5315 H   0  0  0  0  0  0
    3.9851   -0.7803    1.8284 H   0  0  0  0  0  0
    4.4698    3.9452    0.3745 H   0  0  0  0  0  0
   -1.1124    2.3929   -0.8666 H   0  0  0  0  0  0
   -1.3305    1.2730   -2.2043 H   0  0  0  0  0  0
    5.7962    0.6136    2.7497 H   0  0  0  0  0  0
    6.0526    2.9775    2.0209 H   0  0  0  0  0  0
   -3.2343   -0.2903   -2.2517 H   0  0  0  0  0  0
   -2.6134    2.3329    1.1191 H   0  0  0  0  0  0
   -5.5221   -0.7781   -1.4516 H   0  0  0  0  0  0
   -4.9011    1.8459    1.9204 H   0  0  0  0  0  0
    3.5184   -2.1811   -0.4343 N   0  3  0  0  0  0
    4.1882   -1.6608    0.1148 H   0  0  0  0  0  0
  1 28  1  0  0  0
  2 28  1  0  0  0
  3 28  1  0  0  0
  4 16  2  0  0  0
  5  6  1  0  0  0
  5 13  1  0  0  0
  5 16  1  0  0  0
  6  7  1  0  0  0
  6 12  1  0  0  0
  6 29  1  0  0  0
  7 30  1  0  0  0
  7 31  1  0  0  0
  7 54  1  0  0  0
  8 10  1  0  0  0
  8 32  1  0  0  0
  8 33  1  0  0  0
  8 54  1  0  0  0
  9 11  1  0  0  0
  9 34  1  0  0  0
  9 35  1  0  0  0
  9 54  1  0  0  0
 10 11  1  0  0  0
 10 36  1  0  0  0
 10 37  1  0  0  0
 11 38  1  0  0  0
 11 39  1  0  0  0
 12 15  1  0  0  0
 12 17  2  0  0  0
 13 14  1  0  0  0
 13 40  1  0  0  0
 13 41  1  0  0  0
 14 15  1  0  0  0
 14 42  1  0  0  0
 14 43  1  0  0  0
 15 18  2  0  0  0
 16 19  1  0  0  0
 17 20  1  0  0  0
 17 44  1  0  0  0
 18 21  1  0  0  0
 18 45  1  0  0  0
 19 22  1  0  0  0
 19 46  1  0  0  0
 19 47  1  0  0  0
 20 21  2  0  0  0
 20 48  1  0  0  0
 21 49  1  0  0  0
 22 23  2  0  0  0
 22 24  1  0  0  0
 23 25  1  0  0  0
 23 50  1  0  0  0
 24 26  2  0  0  0
 24 51  1  0  0  0
 25 27  2  0  0  0
 25 52  1  0  0  0
 26 27  1  0  0  0
 26 53  1  0  0  0
 27 28  1  0  0  0
 54 55  1  0  0  0
M  CHG  1  54   1
M  END
> <LID>
L005355

> <PC_CID>
15697349

> <Names>


> <CAS_Numbers>
112217-82-0;130926-30-6

$$$$
443406
                    3D
 Structure written by MMmdl.
 53 56  0  0  1  0            999 V2000
    3.9898   -0.5347   -2.1003 O   0  0  0  0  0  0
   -5.2572   -0.9599   -0.6675 O   0  0  0  0  0  0
    0.2271    1.3356    1.1578 C   0  0  0  0  0  0
   -0.8591    1.3010    0.0061 C   0  0  1  0  0  0
    0.9670   -0.0315    1.1388 C   0  0  1  0  0  0
   -0.1140    1.0715   -1.3420 C   0  0  0  0  0  0
    0.7751   -0.1861   -1.3448 C   0  0  0  0  0  0
    3.9957   -0.8785   -0.7309 C   0  0  0  0  0  0
    0.0206   -1.2066    1.4678 C   0  0  0  0  0  0
   -1.8111    0.0893    0.2048 C   0  0  0  0  0  0
    2.6537   -1.3309   -0.1856 C   0  0  0  0  0  0
   -1.6629    2.6533   -0.0166 C   0  0  0  0  0  0
   -0.4241    1.5692    2.5489 C   0  0  0  0  0  0
    1.3045    2.4537    1.0124 C   0  0  0  0  0  0
    5.2922   -1.5465   -0.3406 C   0  0  0  0  0  0
    5.0169   -0.1158    0.0765 C   0  0  0  0  0  0
   -1.3706   -1.0916    0.8672 C   0  0  0  0  0  0
   -3.1328    0.1042   -0.3094 C   0  0  0  0  0  0
   -2.1021    3.2115   -1.3870 C   0  0  0  0  0  0
   -2.2330   -2.1987    1.0081 C   0  0  0  0  0  0
   -3.9892   -1.0038   -0.1657 C   0  0  0  0  0  0
   -3.5390   -2.1585    0.4937 C   0  0  0  0  0  0
    1.7426   -0.0146    1.9067 H   0  0  0  0  0  0
    0.4937    1.9385   -1.5984 H   0  0  0  0  0  0
   -0.8303    0.9716   -2.1580 H   0  0  0  0  0  0
    0.1673   -1.0908   -1.3726 H   0  0  0  0  0  0
    1.3662   -0.1983   -2.2603 H   0  0  0  0  0  0
   -0.1078   -1.2624    2.5494 H   0  0  0  0  0  0
    0.4591   -2.1622    1.1796 H   0  0  0  0  0  0
    2.2799   -2.1721   -0.7714 H   0  0  0  0  0  0
    2.8187   -1.7111    0.8235 H   0  0  0  0  0  0
   -2.5242    2.5835    0.6491 H   0  0  0  0  0  0
   -1.0757    3.4575    0.4157 H   0  0  0  0  0  0
   -0.8366    2.5743    2.6374 H   0  0  0  0  0  0
   -1.2392    0.8799    2.7653 H   0  0  0  0  0  0
    0.3085    1.4588    3.3492 H   0  0  0  0  0  0
    0.9030    3.4573    1.1406 H   0  0  0  0  0  0
    2.0714    2.3466    1.7806 H   0  0  0  0  0  0
    1.8283    2.4400    0.0584 H   0  0  0  0  0  0
    6.0439   -1.7089   -1.1112 H   0  0  0  0  0  0
    5.2571   -2.3066    0.4375 H   0  0  0  0  0  0
    4.7965    0.0647    1.1269 H   0  0  0  0  0  0
    5.5792    0.6723   -0.4211 H   0  0  0  0  0  0
   -3.5218    0.9659   -0.8227 H   0  0  0  0  0  0
   -2.7391    4.0858   -1.2518 H   0  0  0  0  0  0
   -1.2435    3.5357   -1.9753 H   0  0  0  0  0  0
   -2.6585    2.4968   -1.9898 H   0  0  0  0  0  0
   -1.8928   -3.0882    1.5181 H   0  0  0  0  0  0
    4.8802   -0.3778   -2.3776 H   0  0  0  0  0  0
   -4.1923   -3.0113    0.6069 H   0  0  0  0  0  0
   -5.4650   -0.1397   -1.0880 H   0  0  0  0  0  0
    1.6760   -0.2127   -0.1652 N   0  3  2  0  0  0
    2.2466    0.6160   -0.2541 H   0  0  0  0  0  0
  1  8  1  0  0  0
  1 49  1  0  0  0
  2 21  1  0  0  0
  2 51  1  0  0  0
  3  4  1  0  0  0
  3  5  1  0  0  0
  3 13  1  0  0  0
  3 14  1  0  0  0
  4  6  1  0  0  0
  4 10  1  0  0  0
  4 12  1  0  0  0
  5  9  1  0  0  0
  5 23  1  0  0  0
  5 52  1  0  0  0
  6  7  1  0  0  0
  6 24  1  0  0  0
  6 25  1  0  0  0
  7 26  1  0  0  0
  7 27  1  0  0  0
  7 52  1  0  0  0
  8 11  1  0  0  0
  8 15  1  0  0  0
  8 16  1  0  0  0
  9 17  1  0  0  0
  9 28  1  0  0  0
  9 29  1  0  0  0
 10 17  2  0  0  0
 10 18  1  0  0  0
 11 30  1  0  0  0
 11 31  1  0  0  0
 11 52  1  0  0  0
 12 19  1  0  0  0
 12 32  1  0  0  0
 12 33  1  0  0  0
 13 34  1  0  0  0
 13 35  1  0  0  0
 13 36  1  0  0  0
 14 37  1  0  0  0
 14 38  1  0  0  0
 14 39  1  0  0  0
 15 16  1  0  0  0
 15 40  1  0  0  0
 15 41  1  0  0  0
 16 42  1  0  0  0
 16 43  1  0  0  0
 17 20  1  0  0  0
 18 21  2  0  0  0
 18 44  1  0  0  0
 19 45  1  0  0  0
 19 46  1  0  0  0
 19 47  1  0  0  0
 20 22  2  0  0  0
 20 48  1  0  0  0
 21 22  1  0  0  0
 22 50  1  0  0  0
 52 53  1  0  0  0
M  CHG  1  52   1
M  END
> <LID>
L024018

> <PC_CID>
443406

> <Names>
bremazocine

> <CAS_Numbers>
75684-07-0

$$$$
5760
                    3D
 Structure written by MMmdl.
 44 46  0  0  1  0            999 V2000
    0.4604    0.0824    0.6683 O   0  0  0  0  0  0
   -2.7670   -2.2964   -0.7851 O   0  0  0  0  0  0
   -0.6766   -2.4520    0.1238 O   0  0  0  0  0  0
    1.6628   -0.1777    2.5880 O   0  0  0  0  0  0
   -2.4700    0.6087   -0.5996 C   0  0  2  0  0  0
   -1.6869    2.4636    0.5167 C   0  0  2  0  0  0
   -1.9621   -0.4105    0.4631 C   0  0  2  0  0  0
   -1.3553    1.1585   -1.5121 C   0  0  0  0  0  0
   -0.8345    2.4029   -0.7666 C   0  0  0  0  0  0
   -1.0674    1.6608    1.6901 C   0  0  0  0  0  0
   -0.8004    0.1704    1.3335 C   0  0  2  0  0  0
   -3.9159    2.6399   -0.5829 C   0  0  0  0  0  0
   -1.7156   -1.8267   -0.0927 C   0  0  0  0  0  0
    1.6089   -0.1023    1.3591 C   0  0  0  0  0  0
   -2.7088   -3.5945   -1.3512 C   0  0  0  0  0  0
    2.8071   -0.1934    0.4767 C   0  0  0  0  0  0
    4.0862   -0.3510    1.0597 C   0  0  0  0  0  0
    2.7037   -0.1277   -0.9347 C   0  0  0  0  0  0
    5.2368   -0.4395    0.2522 C   0  0  0  0  0  0
    3.8554   -0.2164   -1.7408 C   0  0  0  0  0  0
    5.1222   -0.3720   -1.1485 C   0  0  0  0  0  0
   -3.2830    0.1789   -1.1867 H   0  0  0  0  0  0
   -1.8624    3.4930    0.8328 H   0  0  0  0  0  0
   -2.7970   -0.5532    1.1503 H   0  0  0  0  0  0
   -1.7698    1.4560   -2.4760 H   0  0  0  0  0  0
   -0.5764    0.4244   -1.7162 H   0  0  0  0  0  0
    0.2353    2.3612   -0.5604 H   0  0  0  0  0  0
   -1.0052    3.2921   -1.3747 H   0  0  0  0  0  0
   -0.1543    2.1434    2.0407 H   0  0  0  0  0  0
   -1.7580    1.6971    2.5336 H   0  0  0  0  0  0
   -0.7546   -0.4121    2.2550 H   0  0  0  0  0  0
   -4.2116    3.4899    0.0327 H   0  0  0  0  0  0
   -3.5053    3.0245   -1.5170 H   0  0  0  0  0  0
   -4.8160    2.0708   -0.8173 H   0  0  0  0  0  0
   -3.6382   -3.8113   -1.8777 H   0  0  0  0  0  0
   -1.8875   -3.6713   -2.0647 H   0  0  0  0  0  0
   -2.5716   -4.3508   -0.5773 H   0  0  0  0  0  0
    4.1983   -0.4053    2.1332 H   0  0  0  0  0  0
    1.7473   -0.0110   -1.4216 H   0  0  0  0  0  0
    6.2082   -0.5594    0.7088 H   0  0  0  0  0  0
    3.7660   -0.1657   -2.8160 H   0  0  0  0  0  0
    6.0046   -0.4402   -1.7676 H   0  0  0  0  0  0
   -2.9451    1.7901    0.1458 N   0  3  1  0  0  0
   -3.4085    1.4802    0.9882 H   0  0  0  0  0  0
  1 11  1  0  0  0
  1 14  1  0  0  0
  2 13  1  0  0  0
  2 15  1  0  0  0
  3 13  2  0  0  0
  4 14  2  0  0  0
  5  7  1  0  0  0
  5  8  1  0  0  0
  5 22  1  0  0  0
  5 43  1  0  0  0
  6  9  1  0  0  0
  6 10  1  0  0  0
  6 23  1  0  0  0
  6 43  1  0  0  0
  7 11  1  0  0  0
  7 13  1  0  0  0
  7 24  1  0  0  0
  8  9  1  0  0  0
  8 25  1  0  0  0
  8 26  1  0  0  0
  9 27  1  0  0  0
  9 28  1  0  0  0
 10 11  1  0  0  0
 10 29  1  0  0  0
 10 30  1  0  0  0
 11 31  1  0  0  0
 12 32  1  0  0  0
 12 33  1  0  0  0
 12 34  1  0  0  0
 12 43  1  0  0  0
 14 16  1  0  0  0
 15 35  1  0  0  0
 15 36  1  0  0  0
 15 37  1  0  0  0
 16 17  2  0  0  0
 16 18  1  0  0  0
 17 19  1  0  0  0
 17 38  1  0  0  0
 18 20  2  0  0  0
 18 39  1  0  0  0
 19 21  2  0  0  0
 19 40  1  0  0  0
 20 21  1  0  0  0
 20 41  1  0  0  0
 21 42  1  0  0  0
 43 44  1  0  0  0
M  CHG  1  43   1
M  END
> <LID>
L000836

> <PC_CID>
5760

> <Names>
Cocaine;Coke

> <CAS_Numbers>
50-36-2;53-21-4

$$$$
44210731
                    3D
 Structure written by MMmdl.
 58 60  0  0  1  0            999 V2000
   -7.3580   -0.2243    0.1158 F   0  0  0  0  0  0
   -6.6666    0.7467    1.9260 F   0  0  0  0  0  0
   -6.4739    1.7525    0.0235 F   0  0  0  0  0  0
    3.6460    5.4928   -0.6056 O   0  0  0  0  0  0
   -0.2567   -0.0803    1.0038 O   0  0  0  0  0  0
    1.2721   -1.3582   -0.0877 N   0  0  0  0  0  0
    3.8533   -2.5988    0.3450 C   0  0  0  0  0  0
    2.3822   -0.4409    0.3006 C   0  0  1  0  0  0
    3.7993   -1.0698    0.2563 C   0  0  0  0  0  0
    3.0090   -3.0991   -0.8319 C   0  0  0  0  0  0
    2.3171    0.8772   -0.5224 C   0  0  0  0  0  0
    1.5446   -2.6356   -0.7860 C   0  0  0  0  0  0
    5.3094   -3.0701    0.1629 C   0  0  0  0  0  0
    3.3427   -3.1239    1.7048 C   0  0  0  0  0  0
    2.6641    3.3091   -0.1140 C   0  0  0  0  0  0
    4.5929    1.9689   -0.5280 C   0  0  0  0  0  0
    3.8826    4.2243   -0.0322 C   0  0  1  0  0  0
    4.9358    3.4385   -0.8066 C   0  0  0  0  0  0
   -0.0008   -1.0579    0.2962 C   0  0  0  0  0  0
   -1.1675   -1.9510   -0.1791 C   0  0  0  0  0  0
   -2.5264   -1.2984    0.0317 C   0  0  0  0  0  0
   -3.2636   -1.5543    1.2068 C   0  0  0  0  0  0
   -3.0605   -0.4382   -0.9505 C   0  0  0  0  0  0
   -4.5207   -0.9497    1.4006 C   0  0  0  0  0  0
   -4.3177    0.1657   -0.7558 C   0  0  0  0  0  0
   -5.0537   -0.0811    0.4235 C   0  0  0  0  0  0
   -6.4157    0.5656    0.6289 C   0  0  0  0  0  0
    2.2205   -0.1890    1.3510 H   0  0  0  0  0  0
    4.2774   -0.7874   -0.6819 H   0  0  0  0  0  0
    4.4169   -0.6308    1.0410 H   0  0  0  0  0  0
    3.0442   -4.1879   -0.8912 H   0  0  0  0  0  0
    3.4510   -2.7445   -1.7646 H   0  0  0  0  0  0
    2.5257    0.6919   -1.5771 H   0  0  0  0  0  0
    1.2997    1.2673   -0.4987 H   0  0  0  0  0  0
    1.1544   -2.5882   -1.8035 H   0  0  0  0  0  0
    0.9970   -3.4333   -0.2821 H   0  0  0  0  0  0
    5.3788   -4.1584    0.1807 H   0  0  0  0  0  0
    5.7271   -2.7330   -0.7865 H   0  0  0  0  0  0
    5.9526   -2.6881    0.9565 H   0  0  0  0  0  0
    3.3685   -4.2135    1.7388 H   0  0  0  0  0  0
    3.9619   -2.7571    2.5240 H   0  0  0  0  0  0
    2.3186   -2.8200    1.9181 H   0  0  0  0  0  0
    1.9225    3.5227    0.6566 H   0  0  0  0  0  0
    2.1828    3.4192   -1.0882 H   0  0  0  0  0  0
    4.6994    1.3824   -1.4413 H   0  0  0  0  0  0
    5.2701    1.5488    0.2161 H   0  0  0  0  0  0
    4.1949    4.3415    1.0067 H   0  0  0  0  0  0
    5.9542    3.6992   -0.5168 H   0  0  0  0  0  0
    4.8366    3.6328   -1.8761 H   0  0  0  0  0  0
   -1.0640   -2.1791   -1.2402 H   0  0  0  0  0  0
   -1.1417   -2.8987    0.3597 H   0  0  0  0  0  0
    3.0063    5.9521   -0.0822 H   0  0  0  0  0  0
   -2.8659   -2.2132    1.9649 H   0  0  0  0  0  0
   -2.5065   -0.2379   -1.8559 H   0  0  0  0  0  0
   -5.0751   -1.1573    2.3039 H   0  0  0  0  0  0
   -4.7160    0.8194   -1.5177 H   0  0  0  0  0  0
    3.2089    1.9402    0.0120 N   0  3  2  0  0  0
    3.2941    1.7794    1.0057 H   0  0  0  0  0  0
  1 27  1  0  0  0
  2 27  1  0  0  0
  3 27  1  0  0  0
  4 17  1  0  0  0
  4 52  1  0  0  0
  5 19  2  0  0  0
  6  8  1  0  0  0
  6 12  1  0  0  0
  6 19  1  0  0  0
  7  9  1  0  0  0
  7 10  1  0  0  0
  7 13  1  0  0  0
  7 14  1  0  0  0
  8  9  1  0  0  0
  8 11  1  0  0  0
  8 28  1  0  0  0
  9 29  1  0  0  0
  9 30  1  0  0  0
 10 12  1  0  0  0
 10 31  1  0  0  0
 10 32  1  0  0  0
 11 33  1  0  0  0
 11 34  1  0  0  0
 11 57  1  0  0  0
 12 35  1  0  0  0
 12 36  1  0  0  0
 13 37  1  0  0  0
 13 38  1  0  0  0
 13 39  1  0  0  0
 14 40  1  0  0  0
 14 41  1  0  0  0
 14 42  1  0  0  0
 15 17  1  0  0  0
 15 43  1  0  0  0
 15 44  1  0  0  0
 15 57  1  0  0  0
 16 18  1  0  0  0
 16 45  1  0  0  0
 16 46  1  0  0  0
 16 57  1  0  0  0
 17 18  1  0  0  0
 17 47  1  0  0  0
 18 48  1  0  0  0
 18 49  1  0  0  0
 19 20  1  0  0  0
 20 21  1  0  0  0
 20 50  1  0  0  0
 20 51  1  0  0  0
 21 22  2  0  0  0
 21 23  1  0  0  0
 22 24  1  0  0  0
 22 53  1  0  0  0
 23 25  2  0  0  0
 23 54  1  0  0  0
 24 26  2  0  0  0
 24 55  1  0  0  0
 25 26  1  0  0  0
 25 56  1  0  0  0
 26 27  1  0  0  0
 57 58  1  0  0  0
M  CHG  1  57   1
M  END
> <LID>
L008001

> <PC_CID>
44210731

> <Names>


> <CAS_Numbers>


$$$$
44209888
                    3D
 Structure written by MMmdl.
 55 58  0  0  1  0            999 V2000
   -0.3604    0.1947    0.4738 O   0  0  0  0  0  0
    6.1528    0.4518    2.6611 O   0  0  0  0  0  0
   -1.9059   -1.4082   -0.0205 N   0  0  0  0  0  0
   -3.1331   -0.5664   -0.0552 C   0  0  1  0  0  0
   -3.9271   -0.8285    1.2455 C   0  0  0  0  0  0
   -2.9401    0.9487   -0.3369 C   0  0  0  0  0  0
   -4.2784   -2.3193    1.3909 C   0  0  0  0  0  0
   -2.2728   -2.8371   -0.0740 C   0  0  0  0  0  0
   -3.0422   -3.2135    1.2048 C   0  0  0  0  0  0
   -0.6408   -0.9854    0.2642 C   0  0  0  0  0  0
   -4.1140    3.1427   -0.5116 C   0  0  0  0  0  0
   -4.9312    1.2765   -1.8304 C   0  0  0  0  0  0
    0.4990   -2.0241    0.3259 C   0  0  0  0  0  0
   -5.0523    3.6022   -1.5915 C   0  0  0  0  0  0
   -5.4993    2.5809   -2.3134 C   0  0  0  0  0  0
    1.8552   -1.4021    0.6287 C   0  0  0  0  0  0
    3.9436   -0.3853   -0.1506 C   0  0  0  0  0  0
    4.8047    0.0780   -1.3150 C   0  0  0  0  0  0
    2.6848   -0.9611   -0.4223 C   0  0  0  0  0  0
    4.3802   -0.2422    1.1923 C   0  0  0  0  0  0
    6.2928    0.1426   -0.9510 C   0  0  0  0  0  0
    2.2924   -1.2679    1.9616 C   0  0  0  0  0  0
    6.5256    0.9182    0.3523 C   0  0  0  0  0  0
    5.7045    0.3607    1.5187 C   0  0  0  0  0  0
    3.5459   -0.6921    2.2407 C   0  0  0  0  0  0
   -3.7299   -0.9460   -0.8857 H   0  0  0  0  0  0
   -3.3395   -0.5036    2.1055 H   0  0  0  0  0  0
   -4.8482   -0.2459    1.2646 H   0  0  0  0  0  0
   -2.4752    1.4252    0.5269 H   0  0  0  0  0  0
   -2.2809    1.1064   -1.1922 H   0  0  0  0  0  0
   -4.7376   -2.5072    2.3618 H   0  0  0  0  0  0
   -5.0251   -2.5842    0.6412 H   0  0  0  0  0  0
   -1.4352   -3.5179   -0.2108 H   0  0  0  0  0  0
   -2.9046   -3.0142   -0.9456 H   0  0  0  0  0  0
   -2.3834   -3.1112    2.0683 H   0  0  0  0  0  0
   -3.3429   -4.2610    1.1683 H   0  0  0  0  0  0
   -3.1053    3.4943   -0.7337 H   0  0  0  0  0  0
   -4.4156    3.5143    0.4680 H   0  0  0  0  0  0
   -5.7169    0.5478   -1.6290 H   0  0  0  0  0  0
   -4.2535    0.8745   -2.5849 H   0  0  0  0  0  0
    0.2786   -2.7644    1.0961 H   0  0  0  0  0  0
    0.5644   -2.5512   -0.6268 H   0  0  0  0  0  0
   -5.2957    4.6426   -1.7511 H   0  0  0  0  0  0
   -6.1679    2.6503   -3.1592 H   0  0  0  0  0  0
    4.6618   -0.5858   -2.1686 H   0  0  0  0  0  0
    4.4558    1.0648   -1.6216 H   0  0  0  0  0  0
    2.3517   -1.0628   -1.4451 H   0  0  0  0  0  0
    6.8567    0.5972   -1.7659 H   0  0  0  0  0  0
    6.6818   -0.8704   -0.8371 H   0  0  0  0  0  0
    7.5832    0.8950    0.6159 H   0  0  0  0  0  0
    6.2560    1.9655    0.2147 H   0  0  0  0  0  0
    1.6657   -1.6027    2.7752 H   0  0  0  0  0  0
    3.8587   -0.5977    3.2708 H   0  0  0  0  0  0
   -4.2210    1.6575   -0.5755 N   0  3  0  0  0  0
   -4.8416    1.4045    0.1802 H   0  0  0  0  0  0
  1 10  2  0  0  0
  2 24  2  0  0  0
  3  4  1  0  0  0
  3  8  1  0  0  0
  3 10  1  0  0  0
  4  5  1  0  0  0
  4  6  1  0  0  0
  4 26  1  0  0  0
  5  7  1  0  0  0
  5 27  1  0  0  0
  5 28  1  0  0  0
  6 29  1  0  0  0
  6 30  1  0  0  0
  6 54  1  0  0  0
  7  9  1  0  0  0
  7 31  1  0  0  0
  7 32  1  0  0  0
  8  9  1  0  0  0
  8 33  1  0  0  0
  8 34  1  0  0  0
  9 35  1  0  0  0
  9 36  1  0  0  0
 10 13  1  0  0  0
 11 14  1  0  0  0
 11 37  1  0  0  0
 11 38  1  0  0  0
 11 54  1  0  0  0
 12 15  1  0  0  0
 12 39  1  0  0  0
 12 40  1  0  0  0
 12 54  1  0  0  0
 13 16  1  0  0  0
 13 41  1  0  0  0
 13 42  1  0  0  0
 14 15  2  0  0  0
 14 43  1  0  0  0
 15 44  1  0  0  0
 16 19  2  0  0  0
 16 22  1  0  0  0
 17 18  1  0  0  0
 17 19  1  0  0  0
 17 20  2  0  0  0
 18 21  1  0  0  0
 18 45  1  0  0  0
 18 46  1  0  0  0
 19 47  1  0  0  0
 20 24  1  0  0  0
 20 25  1  0  0  0
 21 23  1  0  0  0
 21 48  1  0  0  0
 21 49  1  0  0  0
 22 25  2  0  0  0
 22 52  1  0  0  0
 23 24  1  0  0  0
 23 50  1  0  0  0
 23 51  1  0  0  0
 25 53  1  0  0  0
 54 55  1  0  0  0
M  CHG  1  54   1
M  END
> <LID>
L005483

> <PC_CID>
44209888

> <Names>


> <CAS_Numbers>


$$$$
44210733
                    3D
 Structure written by MMmdl.
 55 58  0  0  1  0            999 V2000
   -2.1285   -4.9693   -0.6738 F   0  0  0  0  0  0
    7.4614   -0.4069   -0.2394 F   0  0  0  0  0  0
    7.4698    0.6988    1.6168 F   0  0  0  0  0  0
    6.6227   -1.2951    1.5510 F   0  0  0  0  0  0
    0.5634    0.1980    0.8981 O   0  0  0  0  0  0
   -0.9157    1.1944   -0.5257 N   0  0  0  0  0  0
   -2.0753    0.2824   -0.3357 C   0  0  1  0  0  0
   -1.7920   -1.1561    0.1883 C   0  0  0  0  0  0
   -2.8289   -3.3281    0.8388 C   0  0  0  0  0  0
   -3.3857   -2.3956   -1.2943 C   0  0  0  0  0  0
   -3.2279   -4.4591   -0.1173 C   0  0  1  0  0  0
   -4.0566   -3.7621   -1.1897 C   0  0  0  0  0  0
   -3.1866    1.0483    0.3826 C   0  0  0  0  0  0
   -1.2444    2.4198   -1.3006 C   0  0  0  0  0  0
   -2.7538    2.7673   -1.3864 C   0  0  0  0  0  0
   -3.5230    2.3026   -0.1639 C   0  0  0  0  0  0
    0.3108    1.0545    0.0507 C   0  0  0  0  0  0
   -3.8499    0.5970    1.5474 C   0  0  0  0  0  0
   -4.5336    3.0927    0.4187 C   0  0  0  0  0  0
    1.4506    1.9967   -0.3934 C   0  0  0  0  0  0
   -4.8593    1.3872    2.1322 C   0  0  0  0  0  0
   -5.2047    2.6302    1.5667 C   0  0  0  0  0  0
    2.8287    1.4401   -0.0650 C   0  0  0  0  0  0
    3.4799    1.8118    1.1298 C   0  0  0  0  0  0
    3.4646    0.5496   -0.9552 C   0  0  0  0  0  0
    4.7549    1.2958    1.4322 C   0  0  0  0  0  0
    4.7397    0.0342   -0.6519 C   0  0  0  0  0  0
    5.3957    0.4077    0.5412 C   0  0  0  0  0  0
    6.7690   -0.1576    0.8727 C   0  0  0  0  0  0
   -2.4437    0.1279   -1.3506 H   0  0  0  0  0  0
   -1.5035   -1.1128    1.2391 H   0  0  0  0  0  0
   -0.9592   -1.6077   -0.3537 H   0  0  0  0  0  0
   -1.8228   -3.4798    1.2336 H   0  0  0  0  0  0
   -3.5100   -3.2908    1.6896 H   0  0  0  0  0  0
   -4.0509   -1.6391   -1.7118 H   0  0  0  0  0  0
   -2.5104   -2.4695   -1.9421 H   0  0  0  0  0  0
   -3.7554   -5.2766    0.3756 H   0  0  0  0  0  0
   -5.0856   -3.6455   -0.8465 H   0  0  0  0  0  0
   -4.0763   -4.3027   -2.1367 H   0  0  0  0  0  0
   -0.7800    3.2756   -0.8089 H   0  0  0  0  0  0
   -0.8156    2.3663   -2.3021 H   0  0  0  0  0  0
   -3.1938    2.2783   -2.2563 H   0  0  0  0  0  0
   -2.8866    3.8393   -1.5379 H   0  0  0  0  0  0
   -3.5958   -0.3403    2.0168 H   0  0  0  0  0  0
   -4.7920    4.0516   -0.0063 H   0  0  0  0  0  0
    1.4064    2.1699   -1.4691 H   0  0  0  0  0  0
    1.3297    2.9644    0.0947 H   0  0  0  0  0  0
   -5.3671    1.0416    3.0207 H   0  0  0  0  0  0
   -5.9782    3.2332    2.0193 H   0  0  0  0  0  0
    3.0008    2.4897    1.8213 H   0  0  0  0  0  0
    2.9741    0.2555   -1.8716 H   0  0  0  0  0  0
    5.2382    1.5835    2.3543 H   0  0  0  0  0  0
    5.2117   -0.6520   -1.3394 H   0  0  0  0  0  0
   -2.9685   -2.0571    0.0855 N   0  3  2  0  0  0
   -3.7478   -1.5721    0.5076 H   0  0  0  0  0  0
  1 11  1  0  0  0
  2 29  1  0  0  0
  3 29  1  0  0  0
  4 29  1  0  0  0
  5 17  2  0  0  0
  6  7  1  0  0  0
  6 14  1  0  0  0
  6 17  1  0  0  0
  7  8  1  0  0  0
  7 13  1  0  0  0
  7 30  1  0  0  0
  8 31  1  0  0  0
  8 32  1  0  0  0
  8 54  1  0  0  0
  9 11  1  0  0  0
  9 33  1  0  0  0
  9 34  1  0  0  0
  9 54  1  0  0  0
 10 12  1  0  0  0
 10 35  1  0  0  0
 10 36  1  0  0  0
 10 54  1  0  0  0
 11 12  1  0  0  0
 11 37  1  0  0  0
 12 38  1  0  0  0
 12 39  1  0  0  0
 13 16  1  0  0  0
 13 18  2  0  0  0
 14 15  1  0  0  0
 14 40  1  0  0  0
 14 41  1  0  0  0
 15 16  1  0  0  0
 15 42  1  0  0  0
 15 43  1  0  0  0
 16 19  2  0  0  0
 17 20  1  0  0  0
 18 21  1  0  0  0
 18 44  1  0  0  0
 19 22  1  0  0  0
 19 45  1  0  0  0
 20 23  1  0  0  0
 20 46  1  0  0  0
 20 47  1  0  0  0
 21 22  2  0  0  0
 21 48  1  0  0  0
 22 49  1  0  0  0
 23 24  2  0  0  0
 23 25  1  0  0  0
 24 26  1  0  0  0
 24 50  1  0  0  0
 25 27  2  0  0  0
 25 51  1  0  0  0
 26 28  2  0  0  0
 26 52  1  0  0  0
 27 28  1  0  0  0
 27 53  1  0  0  0
 28 29  1  0  0  0
 54 55  1  0  0  0
M  CHG  1  54   1
M  END
> <LID>
L008003

> <PC_CID>
44210733

> <Names>


> <CAS_Numbers>


$$$$
44210732
                    3D
 Structure written by MMmdl.
 57 59  0  0  1  0            999 V2000
    5.9547    4.0592    0.9108 F   0  0  0  0  0  0
   -7.0601   -0.7348   -1.1652 F   0  0  0  0  0  0
   -7.1582    0.7407    0.4101 F   0  0  0  0  0  0
   -6.2830    1.2601   -1.5036 F   0  0  0  0  0  0
   -0.2457    0.3014   -0.2719 O   0  0  0  0  0  0
    1.3488   -0.8040    0.9269 N   0  0  0  0  0  0
    3.5391   -2.5854    0.0746 C   0  0  0  0  0  0
    2.5711   -0.1990    0.3361 C   0  0  1  0  0  0
    3.2029   -1.2402   -0.6198 C   0  0  0  0  0  0
    2.3279   -3.0598    0.9157 C   0  0  0  0  0  0
    2.4158    1.1949   -0.3312 C   0  0  0  0  0  0
    1.7223   -1.9423    1.7862 C   0  0  0  0  0  0
    3.8518   -3.6429   -1.0014 C   0  0  0  0  0  0
    4.7903   -2.4361    0.9680 C   0  0  0  0  0  0
    4.5919    2.1678    0.4360 C   0  0  0  0  0  0
    3.5957    3.0075   -1.5702 C   0  0  0  0  0  0
    5.4527    3.3176   -0.0757 C   0  0  1  0  0  0
    4.4823    4.0964   -0.9536 C   0  0  0  0  0  0
    0.0585   -0.5421    0.5713 C   0  0  0  0  0  0
   -1.0803   -1.3306    1.2521 C   0  0  0  0  0  0
   -2.4633   -0.9118    0.7724 C   0  0  0  0  0  0
   -3.0562   -1.5552   -0.3340 C   0  0  0  0  0  0
   -3.1616    0.1210    1.4323 C   0  0  0  0  0  0
   -4.3355   -1.1676   -0.7774 C   0  0  0  0  0  0
   -4.4408    0.5078    0.9881 C   0  0  0  0  0  0
   -5.0387   -0.1372   -0.1164 C   0  0  0  0  0  0
   -6.4166    0.2884   -0.6017 C   0  0  0  0  0  0
    3.2522   -0.0406    1.1712 H   0  0  0  0  0  0
    2.5053   -1.4181   -1.4400 H   0  0  0  0  0  0
    4.1059   -0.8408   -1.0823 H   0  0  0  0  0  0
    2.6117   -3.9059    1.5428 H   0  0  0  0  0  0
    1.5467   -3.4321    0.2510 H   0  0  0  0  0  0
    1.8700    1.8793    0.3206 H   0  0  0  0  0  0
    1.8444    1.0964   -1.2548 H   0  0  0  0  0  0
    0.9058   -2.3490    2.3790 H   0  0  0  0  0  0
    2.4457   -1.6120    2.5321 H   0  0  0  0  0  0
    4.0910   -4.6077   -0.5525 H   0  0  0  0  0  0
    3.0047   -3.7964   -1.6710 H   0  0  0  0  0  0
    4.7030   -3.3462   -1.6153 H   0  0  0  0  0  0
    5.0572   -3.3857    1.4332 H   0  0  0  0  0  0
    5.6532   -2.1067    0.3882 H   0  0  0  0  0  0
    4.6490   -1.7162    1.7727 H   0  0  0  0  0  0
    5.1894    1.3203    0.7739 H   0  0  0  0  0  0
    3.9849    2.5104    1.2760 H   0  0  0  0  0  0
    2.5660    3.3560   -1.6655 H   0  0  0  0  0  0
    3.9465    2.7444   -2.5687 H   0  0  0  0  0  0
    6.2881    2.9403   -0.6676 H   0  0  0  0  0  0
    4.9845    4.7115   -1.7010 H   0  0  0  0  0  0
    3.8724    4.7554   -0.3336 H   0  0  0  0  0  0
   -0.9549   -2.3965    1.0574 H   0  0  0  0  0  0
   -1.0294   -1.1859    2.3320 H   0  0  0  0  0  0
   -2.5290   -2.3447   -0.8495 H   0  0  0  0  0  0
   -2.7159    0.6235    2.2784 H   0  0  0  0  0  0
   -4.7739   -1.6643   -1.6304 H   0  0  0  0  0  0
   -4.9610    1.3050    1.4985 H   0  0  0  0  0  0
    3.7153    1.8089   -0.7021 N   0  3  2  0  0  0
    4.2191    1.1254   -1.2493 H   0  0  0  0  0  0
  1 17  1  0  0  0
  2 27  1  0  0  0
  3 27  1  0  0  0
  4 27  1  0  0  0
  5 19  2  0  0  0
  6  8  1  0  0  0
  6 12  1  0  0  0
  6 19  1  0  0  0
  7  9  1  0  0  0
  7 10  1  0  0  0
  7 13  1  0  0  0
  7 14  1  0  0  0
  8  9  1  0  0  0
  8 11  1  0  0  0
  8 28  1  0  0  0
  9 29  1  0  0  0
  9 30  1  0  0  0
 10 12  1  0  0  0
 10 31  1  0  0  0
 10 32  1  0  0  0
 11 33  1  0  0  0
 11 34  1  0  0  0
 11 56  1  0  0  0
 12 35  1  0  0  0
 12 36  1  0  0  0
 13 37  1  0  0  0
 13 38  1  0  0  0
 13 39  1  0  0  0
 14 40  1  0  0  0
 14 41  1  0  0  0
 14 42  1  0  0  0
 15 17  1  0  0  0
 15 43  1  0  0  0
 15 44  1  0  0  0
 15 56  1  0  0  0
 16 18  1  0  0  0
 16 45  1  0  0  0
 16 46  1  0  0  0
 16 56  1  0  0  0
 17 18  1  0  0  0
 17 47  1  0  0  0
 18 48  1  0  0  0
 18 49  1  0  0  0
 19 20  1  0  0  0
 20 21  1  0  0  0
 20 50  1  0  0  0
 20 51  1  0  0  0
 21 22  2  0  0  0
 21 23  1  0  0  0
 22 24  1  0  0  0
 22 52  1  0  0  0
 23 25  2  0  0  0
 23 53  1  0  0  0
 24 26  2  0  0  0
 24 54  1  0  0  0
 25 26  1  0  0  0
 25 55  1  0  0  0
 26 27  1  0  0  0
 56 57  1  0  0  0
M  CHG  1  56   1
M  END
> <LID>
L008002

> <PC_CID>
44210732

> <Names>


> <CAS_Numbers>


$$$$
44212829
                    3D
 Structure written by MMmdl.
 50 53  0  0  1  0            999 V2000
   -7.4726   -0.5729    0.1218 F   0  0  0  0  0  0
   -6.8792    1.5117    0.1114 F   0  0  0  0  0  0
   -6.7527    0.3470   -1.7039 F   0  0  0  0  0  0
   -0.4174    0.5953   -0.0803 O   0  0  0  0  0  0
    1.2329   -0.7800    0.6322 N   0  0  0  0  0  0
    3.4194   -2.1611   -0.2891 N   0  0  0  0  0  0
    4.3575   -0.5225   -1.3899 N   0  0  0  0  0  0
    4.4683   -2.7007   -0.9494 N   0  0  0  0  0  0
    5.0301   -1.7177   -1.5973 N   0  0  0  0  0  0
    2.2994    0.0406   -0.0052 C   0  0  1  0  0  0
    2.8481    1.0778    1.0025 C   0  0  0  0  0  0
    4.6182    2.7900    1.3961 C   0  0  0  0  0  0
    3.3388    2.9179   -0.6183 C   0  0  0  0  0  0
    4.6831    4.2235    0.8533 C   0  0  0  0  0  0
    4.3133    4.0906   -0.6196 C   0  0  0  0  0  0
    3.3720   -0.8597   -0.5681 C   0  0  0  0  0  0
    1.7098   -1.9461    1.4117 C   0  0  0  0  0  0
    2.4945   -2.9199    0.5155 C   0  0  0  0  0  0
   -0.0745   -0.4385    0.4972 C   0  0  0  0  0  0
   -1.1601   -1.3694    1.0727 C   0  0  0  0  0  0
   -2.5693   -0.9345    0.6960 C   0  0  0  0  0  0
   -3.3000   -0.0782    1.5460 C   0  0  0  0  0  0
   -3.1564   -1.3908   -0.5028 C   0  0  0  0  0  0
   -4.6039    0.3233    1.1966 C   0  0  0  0  0  0
   -4.4604   -0.9886   -0.8511 C   0  0  0  0  0  0
   -5.1908   -0.1243   -0.0069 C   0  0  0  0  0  0
   -6.6028    0.3030   -0.3796 C   0  0  0  0  0  0
    1.8890    0.5695   -0.8667 H   0  0  0  0  0  0
    2.0337    1.6718    1.4207 H   0  0  0  0  0  0
    3.3110    0.5537    1.8397 H   0  0  0  0  0  0
    4.1550    2.7765    2.3840 H   0  0  0  0  0  0
    5.6172    2.3641    1.4949 H   0  0  0  0  0  0
    3.2629    2.4418   -1.5964 H   0  0  0  0  0  0
    2.3449    3.2686   -0.3346 H   0  0  0  0  0  0
    5.6586    4.6875    1.0024 H   0  0  0  0  0  0
    3.9409    4.8414    1.3608 H   0  0  0  0  0  0
    3.8812    5.0020   -1.0341 H   0  0  0  0  0  0
    5.1989    3.8391   -1.2052 H   0  0  0  0  0  0
    2.3672   -1.5780    2.2001 H   0  0  0  0  0  0
    0.9281   -2.4929    1.9354 H   0  0  0  0  0  0
    3.0415   -3.6520    1.1108 H   0  0  0  0  0  0
    1.8219   -3.4614   -0.1508 H   0  0  0  0  0  0
   -1.0032   -2.3855    0.7084 H   0  0  0  0  0  0
   -1.0770   -1.3956    2.1599 H   0  0  0  0  0  0
   -2.8619    0.2753    2.4680 H   0  0  0  0  0  0
   -2.6075   -2.0493   -1.1600 H   0  0  0  0  0  0
   -5.1529    0.9767    1.8587 H   0  0  0  0  0  0
   -4.8984   -1.3485   -1.7704 H   0  0  0  0  0  0
    3.8585    1.9875    0.4074 N   0  3  0  0  0  0
    4.5430    1.4076   -0.0594 H   0  0  0  0  0  0
  1 27  1  0  0  0
  2 27  1  0  0  0
  3 27  1  0  0  0
  4 19  2  0  0  0
  5 10  1  0  0  0
  5 17  1  0  0  0
  5 19  1  0  0  0
  6  8  1  0  0  0
  6 16  1  0  0  0
  6 18  1  0  0  0
  7  9  1  0  0  0
  7 16  2  0  0  0
  8  9  2  0  0  0
 10 11  1  0  0  0
 10 16  1  0  0  0
 10 28  1  0  0  0
 11 29  1  0  0  0
 11 30  1  0  0  0
 11 49  1  0  0  0
 12 14  1  0  0  0
 12 31  1  0  0  0
 12 32  1  0  0  0
 12 49  1  0  0  0
 13 15  1  0  0  0
 13 33  1  0  0  0
 13 34  1  0  0  0
 13 49  1  0  0  0
 14 15  1  0  0  0
 14 35  1  0  0  0
 14 36  1  0  0  0
 15 37  1  0  0  0
 15 38  1  0  0  0
 17 18  1  0  0  0
 17 39  1  0  0  0
 17 40  1  0  0  0
 18 41  1  0  0  0
 18 42  1  0  0  0
 19 20  1  0  0  0
 20 21  1  0  0  0
 20 43  1  0  0  0
 20 44  1  0  0  0
 21 22  2  0  0  0
 21 23  1  0  0  0
 22 24  1  0  0  0
 22 45  1  0  0  0
 23 25  2  0  0  0
 23 46  1  0  0  0
 24 26  2  0  0  0
 24 47  1  0  0  0
 25 26  1  0  0  0
 25 48  1  0  0  0
 26 27  1  0  0  0
 49 50  1  0  0  0
M  CHG  1  49   1
M  END
> <LID>
L013603

> <PC_CID>
44212829

> <Names>


> <CAS_Numbers>


$$$$
44210734
                    3D
 Structure written by MMmdl.
 61 64  0  0  1  0            999 V2000
    1.7861   -5.0663    1.4727 F   0  0  0  0  0  0
   -7.8604    0.4380    0.0577 F   0  0  0  0  0  0
   -7.4704    1.4798   -1.7944 F   0  0  0  0  0  0
   -7.0626   -0.6435   -1.6427 F   0  0  0  0  0  0
   -0.9705   -0.5405   -0.2372 O   0  0  0  0  0  0
    0.8014    0.6874    0.4575 N   0  0  0  0  0  0
    1.8009   -0.2669   -0.0564 C   0  0  2  0  0  0
    2.2785    2.6964    0.2664 C   0  0  0  0  0  0
    1.3885    1.8248    1.1800 C   0  0  0  0  0  0
    2.2461   -1.2080    1.0952 C   0  0  0  0  0  0
    2.9684    0.4355   -0.7592 C   0  0  0  0  0  0
    3.2070    1.8279   -0.5947 C   0  0  0  0  0  0
    2.3408   -3.4108   -0.0840 C   0  0  0  0  0  0
    3.8418   -3.0008    1.7346 C   0  0  0  0  0  0
    3.0810    3.6509    1.1788 C   0  0  0  0  0  0
    1.3836    3.5372   -0.6673 C   0  0  0  0  0  0
    2.7158   -4.7452    0.5720 C   0  0  1  0  0  0
    4.0283   -4.4479    1.2876 C   0  0  0  0  0  0
   -0.5309    0.4840    0.2893 C   0  0  0  0  0  0
    3.8003   -0.3112   -1.6254 C   0  0  0  0  0  0
    4.2858    2.4277   -1.2880 C   0  0  0  0  0  0
    4.8758    0.2955   -2.2969 C   0  0  0  0  0  0
    5.1212    1.6670   -2.1247 C   0  0  0  0  0  0
   -1.5227    1.5639    0.7656 C   0  0  0  0  0  0
   -2.9502    1.2924    0.3134 C   0  0  0  0  0  0
   -3.8360    0.5767    1.1458 C   0  0  0  0  0  0
   -3.3970    1.7570   -0.9412 C   0  0  0  0  0  0
   -5.1567    0.3265    0.7257 C   0  0  0  0  0  0
   -4.7180    1.5063   -1.3602 C   0  0  0  0  0  0
   -5.6083    0.7940   -0.5276 C   0  0  0  0  0  0
   -7.0326    0.5147   -0.9849 C   0  0  0  0  0  0
    1.3470   -0.8788   -0.8375 H   0  0  0  0  0  0
    1.9960    1.4206    1.9892 H   0  0  0  0  0  0
    0.6575    2.4485    1.6924 H   0  0  0  0  0  0
    1.3785   -1.5965    1.6317 H   0  0  0  0  0  0
    2.8252   -0.6373    1.8217 H   0  0  0  0  0  0
    2.6673   -3.3999   -1.1240 H   0  0  0  0  0  0
    1.2603   -3.2568   -0.0830 H   0  0  0  0  0  0
    3.2615   -2.9802    2.6590 H   0  0  0  0  0  0
    4.7886   -2.4930    1.9212 H   0  0  0  0  0  0
    3.6530    4.3878    0.6160 H   0  0  0  0  0  0
    2.4187    4.2117    1.8394 H   0  0  0  0  0  0
    3.7809    3.1012    1.8093 H   0  0  0  0  0  0
    1.9760    4.1998   -1.2992 H   0  0  0  0  0  0
    0.7892    2.9057   -1.3284 H   0  0  0  0  0  0
    0.6931    4.1628   -0.1008 H   0  0  0  0  0  0
    2.7852   -5.5714   -0.1365 H   0  0  0  0  0  0
    4.8593   -4.5159    0.5839 H   0  0  0  0  0  0
    4.2304   -5.1287    2.1153 H   0  0  0  0  0  0
    3.6134   -1.3593   -1.7976 H   0  0  0  0  0  0
    4.4777    3.4860   -1.2012 H   0  0  0  0  0  0
    5.5043   -0.2882   -2.9534 H   0  0  0  0  0  0
   -1.4984    1.6224    1.8544 H   0  0  0  0  0  0
   -1.2224    2.5388    0.3809 H   0  0  0  0  0  0
    5.9393    2.1404   -2.6476 H   0  0  0  0  0  0
   -3.5036    0.2126    2.1069 H   0  0  0  0  0  0
   -2.7260    2.3029   -1.5883 H   0  0  0  0  0  0
   -5.8219   -0.2290    1.3702 H   0  0  0  0  0  0
   -5.0443    1.8619   -2.3265 H   0  0  0  0  0  0
    3.0795   -2.3490    0.6470 N   0  3  2  0  0  0
    3.7680   -1.9795    0.0067 H   0  0  0  0  0  0
  1 17  1  0  0  0
  2 31  1  0  0  0
  3 31  1  0  0  0
  4 31  1  0  0  0
  5 19  2  0  0  0
  6  7  1  0  0  0
  6  9  1  0  0  0
  6 19  1  0  0  0
  7 10  1  0  0  0
  7 11  1  0  0  0
  7 32  1  0  0  0
  8  9  1  0  0  0
  8 12  1  0  0  0
  8 15  1  0  0  0
  8 16  1  0  0  0
  9 33  1  0  0  0
  9 34  1  0  0  0
 10 35  1  0  0  0
 10 36  1  0  0  0
 10 60  1  0  0  0
 11 12  1  0  0  0
 11 20  2  0  0  0
 12 21  2  0  0  0
 13 17  1  0  0  0
 13 37  1  0  0  0
 13 38  1  0  0  0
 13 60  1  0  0  0
 14 18  1  0  0  0
 14 39  1  0  0  0
 14 40  1  0  0  0
 14 60  1  0  0  0
 15 41  1  0  0  0
 15 42  1  0  0  0
 15 43  1  0  0  0
 16 44  1  0  0  0
 16 45  1  0  0  0
 16 46  1  0  0  0
 17 18  1  0  0  0
 17 47  1  0  0  0
 18 48  1  0  0  0
 18 49  1  0  0  0
 19 24  1  0  0  0
 20 22  1  0  0  0
 20 50  1  0  0  0
 21 23  1  0  0  0
 21 51  1  0  0  0
 22 23  2  0  0  0
 22 52  1  0  0  0
 23 55  1  0  0  0
 24 25  1  0  0  0
 24 53  1  0  0  0
 24 54  1  0  0  0
 25 26  2  0  0  0
 25 27  1  0  0  0
 26 28  1  0  0  0
 26 56  1  0  0  0
 27 29  2  0  0  0
 27 57  1  0  0  0
 28 30  2  0  0  0
 28 58  1  0  0  0
 29 30  1  0  0  0
 29 59  1  0  0  0
 30 31  1  0  0  0
 60 61  1  0  0  0
M  CHG  1  60   1
M  END
> <LID>
L008004

> <PC_CID>
44210734

> <Names>


> <CAS_Numbers>


$$$$
14536564
                    3D
 Structure written by MMmdl.
 61 64  0  0  1  0            999 V2000
   -2.5742   -1.5287   -2.0684 S   0  0  0  0  0  0
    3.6051   -3.3535    0.0673 O   0  0  0  0  0  0
   -1.3775   -0.0284    0.2407 N   0  0  0  0  0  0
    3.6382   -1.1767    0.7017 N   0  0  0  0  0  0
   -1.7260    2.4057   -0.2649 C   0  0  0  0  0  0
   -2.0084    4.8429   -0.6940 C   0  0  0  0  0  0
    0.1281    3.8561   -1.1087 C   0  0  0  0  0  0
   -1.2396    5.7171   -1.6929 C   0  0  0  0  0  0
    0.2207    5.3292   -1.4923 C   0  0  0  0  0  0
   -0.8453    1.3373    0.4281 C   0  0  1  0  0  0
   -0.5334    1.6843    1.8986 C   0  0  0  0  0  0
   -0.5272   -0.9388   -0.3004 C   0  0  0  0  0  0
   -2.7027   -0.2895    0.4084 C   0  0  0  0  0  0
   -0.9367   -1.6976   -1.4234 C   0  0  0  0  0  0
   -3.4173   -0.9428   -0.6286 C   0  0  0  0  0  0
    0.7777   -1.1280    0.2132 C   0  0  0  0  0  0
   -3.4038    0.0789    1.5811 C   0  0  0  0  0  0
    1.6727   -2.0408   -0.3925 C   0  0  0  0  0  0
   -0.0529   -2.6096   -2.0296 C   0  0  0  0  0  0
   -4.8037   -1.1663   -0.5172 C   0  0  0  0  0  0
    1.2443   -2.7836   -1.5139 C   0  0  0  0  0  0
   -4.7877   -0.1550    1.6959 C   0  0  0  0  0  0
   -5.4910   -0.7672    0.6430 C   0  0  0  0  0  0
    3.0513   -2.2582    0.1639 C   0  0  0  0  0  0
    4.9822   -1.1471    1.2665 C   0  0  0  0  0  0
    6.0502   -0.9744    0.1743 C   0  0  0  0  0  0
    7.4723   -0.9103    0.7488 C   0  0  0  0  0  0
    8.5392   -0.7386   -0.3381 C   0  0  0  0  0  0
   -2.6821    2.4859    0.2539 H   0  0  0  0  0  0
   -1.9525    2.1037   -1.2891 H   0  0  0  0  0  0
   -2.2842    5.4146    0.1927 H   0  0  0  0  0  0
   -2.9296    4.4687   -1.1437 H   0  0  0  0  0  0
    1.0119    3.5122   -0.5705 H   0  0  0  0  0  0
    0.0244    3.2504   -2.0107 H   0  0  0  0  0  0
   -1.5462    5.4677   -2.7098 H   0  0  0  0  0  0
   -1.4167    6.7829   -1.5451 H   0  0  0  0  0  0
    0.6496    5.9034   -0.6697 H   0  0  0  0  0  0
    0.8321    5.4999   -2.3790 H   0  0  0  0  0  0
    0.1126    1.3635   -0.0926 H   0  0  0  0  0  0
   -0.1029    0.8389    2.4349 H   0  0  0  0  0  0
    0.1887    2.4991    1.9528 H   0  0  0  0  0  0
   -1.4131    2.0191    2.4450 H   0  0  0  0  0  0
    1.0924   -0.5700    1.0820 H   0  0  0  0  0  0
   -2.8979    0.5313    2.4162 H   0  0  0  0  0  0
   -0.3720   -3.1868   -2.8850 H   0  0  0  0  0  0
   -5.3394   -1.6591   -1.3153 H   0  0  0  0  0  0
    1.9085   -3.4937   -1.9858 H   0  0  0  0  0  0
   -5.3102    0.1346    2.5958 H   0  0  0  0  0  0
   -6.5526   -0.9456    0.7319 H   0  0  0  0  0  0
    3.1185   -0.3117    0.7118 H   0  0  0  0  0  0
    5.0342   -0.3169    1.9714 H   0  0  0  0  0  0
    5.1673   -2.0552    1.8430 H   0  0  0  0  0  0
    5.9867   -1.8008   -0.5350 H   0  0  0  0  0  0
    5.8468   -0.0650   -0.3928 H   0  0  0  0  0  0
    7.5449   -0.0837    1.4565 H   0  0  0  0  0  0
    7.6796   -1.8197    1.3141 H   0  0  0  0  0  0
    9.5367   -0.6971    0.0998 H   0  0  0  0  0  0
    8.5202   -1.5699   -1.0435 H   0  0  0  0  0  0
    8.3843    0.1825   -0.9005 H   0  0  0  0  0  0
   -1.0956    3.7479   -0.2844 N   0  3  0  0  0  0
   -0.8217    3.9615    0.6642 H   0  0  0  0  0  0
  1 14  1  0  0  0
  1 15  1  0  0  0
  2 24  2  0  0  0
  3 10  1  0  0  0
  3 12  1  0  0  0
  3 13  1  0  0  0
  4 24  1  0  0  0
  4 25  1  0  0  0
  4 50  1  0  0  0
  5 10  1  0  0  0
  5 29  1  0  0  0
  5 30  1  0  0  0
  5 60  1  0  0  0
  6  8  1  0  0  0
  6 31  1  0  0  0
  6 32  1  0  0  0
  6 60  1  0  0  0
  7  9  1  0  0  0
  7 33  1  0  0  0
  7 34  1  0  0  0
  7 60  1  0  0  0
  8  9  1  0  0  0
  8 35  1  0  0  0
  8 36  1  0  0  0
  9 37  1  0  0  0
  9 38  1  0  0  0
 10 11  1  0  0  0
 10 39  1  0  0  0
 11 40  1  0  0  0
 11 41  1  0  0  0
 11 42  1  0  0  0
 12 14  2  0  0  0
 12 16  1  0  0  0
 13 15  1  0  0  0
 13 17  2  0  0  0
 14 19  1  0  0  0
 15 20  2  0  0  0
 16 18  2  0  0  0
 16 43  1  0  0  0
 17 22  1  0  0  0
 17 44  1  0  0  0
 18 21  1  0  0  0
 18 24  1  0  0  0
 19 21  2  0  0  0
 19 45  1  0  0  0
 20 23  1  0  0  0
 20 46  1  0  0  0
 21 47  1  0  0  0
 22 23  2  0  0  0
 22 48  1  0  0  0
 23 49  1  0  0  0
 25 26  1  0  0  0
 25 51  1  0  0  0
 25 52  1  0  0  0
 26 27  1  0  0  0
 26 53  1  0  0  0
 26 54  1  0  0  0
 27 28  1  0  0  0
 27 55  1  0  0  0
 27 56  1  0  0  0
 28 57  1  0  0  0
 28 58  1  0  0  0
 28 59  1  0  0  0
 60 61  1  0  0  0
M  CHG  1  60   1
M  END
> <LID>
L003536

> <PC_CID>
14536564

> <Names>


> <CAS_Numbers>


$$$$
14476591
                    3D
 Structure written by MMmdl.
 57 60  0  0  1  0            999 V2000
    0.3957   -0.0032    0.4365 O   0  0  0  0  0  0
    7.0883    0.6436    1.3622 O   0  5  0  0  0  0
    6.9858   -1.4983    1.0936 O   0  0  0  0  0  0
   -1.0687    0.0201   -1.2950 N   0  0  0  0  0  0
    6.5253   -0.3691    0.9591 N   0  3  0  0  0  0
   -2.5783    1.0556    0.4369 C   0  0  2  0  0  0
   -2.2738   -0.1802   -0.4522 C   0  0  2  0  0  0
   -3.7877    0.7806    1.3517 C   0  0  0  0  0  0
   -2.4848    3.5653    0.3929 C   0  0  0  0  0  0
   -3.8738    2.4665   -1.2324 C   0  0  0  0  0  0
   -3.4840   -0.3831    2.3024 C   0  0  0  0  0  0
   -2.2960   -1.5073    0.3191 C   0  0  0  0  0  0
   -3.2812    4.6260   -0.3635 C   0  0  0  0  0  0
   -4.4695    3.8372   -0.9007 C   0  0  0  0  0  0
   -2.8849   -1.5977    1.6083 C   0  0  0  0  0  0
   -1.7684   -2.6765   -0.2777 C   0  0  0  0  0  0
   -2.9088   -2.8359    2.2841 C   0  0  0  0  0  0
   -1.3098    0.1597   -2.7379 C   0  0  0  0  0  0
    0.1861    0.0693   -0.7756 C   0  0  0  0  0  0
   -1.7979   -3.9078    0.4025 C   0  0  0  0  0  0
   -2.3659   -3.9874    1.6859 C   0  0  0  0  0  0
    1.3818    0.2146   -1.7392 C   0  0  0  0  0  0
    2.7228    0.0634   -1.0358 C   0  0  0  0  0  0
    3.4082    1.1994   -0.5590 C   0  0  0  0  0  0
    3.2910   -1.2146   -0.8588 C   0  0  0  0  0  0
    4.6488    1.0578    0.0921 C   0  0  0  0  0  0
    4.5316   -1.3556   -0.2076 C   0  0  0  0  0  0
    5.2249   -0.2211    0.2757 C   0  0  0  0  0  0
   -1.7279    1.2060    1.1027 H   0  0  0  0  0  0
   -3.1354   -0.2952   -1.1096 H   0  0  0  0  0  0
   -4.0656    1.6570    1.9360 H   0  0  0  0  0  0
   -4.6614    0.5194    0.7550 H   0  0  0  0  0  0
   -2.8801    3.4736    1.4044 H   0  0  0  0  0  0
   -1.4275    3.8192    0.4753 H   0  0  0  0  0  0
   -4.6117    1.6721   -1.1305 H   0  0  0  0  0  0
   -3.5346    2.4516   -2.2686 H   0  0  0  0  0  0
   -2.7767   -0.0558    3.0654 H   0  0  0  0  0  0
   -4.3943   -0.6750    2.8276 H   0  0  0  0  0  0
   -3.5772    5.4648    0.2675 H   0  0  0  0  0  0
   -2.6898    5.0184   -1.1921 H   0  0  0  0  0  0
   -4.9424    4.3130   -1.7604 H   0  0  0  0  0  0
   -5.2232    3.7319   -0.1190 H   0  0  0  0  0  0
   -1.3365   -2.6388   -1.2668 H   0  0  0  0  0  0
   -3.3469   -2.9062    3.2691 H   0  0  0  0  0  0
   -2.3644    0.2592   -2.9934 H   0  0  0  0  0  0
   -0.9337   -0.7137   -3.2719 H   0  0  0  0  0  0
   -0.8167    1.0464   -3.1378 H   0  0  0  0  0  0
   -1.3868   -4.7920   -0.0621 H   0  0  0  0  0  0
   -2.3892   -4.9317    2.2099 H   0  0  0  0  0  0
    1.3198   -0.5381   -2.5258 H   0  0  0  0  0  0
    1.3419    1.1908   -2.2235 H   0  0  0  0  0  0
    2.9830    2.1840   -0.6878 H   0  0  0  0  0  0
    2.7745   -2.0925   -1.2188 H   0  0  0  0  0  0
    5.1529    1.9437    0.4497 H   0  0  0  0  0  0
    4.9442   -2.3460   -0.0828 H   0  0  0  0  0  0
   -2.6781    2.3078   -0.3664 N   0  3  0  0  0  0
   -1.8977    2.2746   -1.0068 H   0  0  0  0  0  0
  1 19  2  0  0  0
  2  5  1  0  0  0
  3  5  2  0  0  0
  4  7  1  0  0  0
  4 18  1  0  0  0
  4 19  1  0  0  0
  5 28  1  0  0  0
  6  7  1  0  0  0
  6  8  1  0  0  0
  6 29  1  0  0  0
  6 56  1  0  0  0
  7 12  1  0  0  0
  7 30  1  0  0  0
  8 11  1  0  0  0
  8 31  1  0  0  0
  8 32  1  0  0  0
  9 13  1  0  0  0
  9 33  1  0  0  0
  9 34  1  0  0  0
  9 56  1  0  0  0
 10 14  1  0  0  0
 10 35  1  0  0  0
 10 36  1  0  0  0
 10 56  1  0  0  0
 11 15  1  0  0  0
 11 37  1  0  0  0
 11 38  1  0  0  0
 12 15  1  0  0  0
 12 16  2  0  0  0
 13 14  1  0  0  0
 13 39  1  0  0  0
 13 40  1  0  0  0
 14 41  1  0  0  0
 14 42  1  0  0  0
 15 17  2  0  0  0
 16 20  1  0  0  0
 16 43  1  0  0  0
 17 21  1  0  0  0
 17 44  1  0  0  0
 18 45  1  0  0  0
 18 46  1  0  0  0
 18 47  1  0  0  0
 19 22  1  0  0  0
 20 21  2  0  0  0
 20 48  1  0  0  0
 21 49  1  0  0  0
 22 23  1  0  0  0
 22 50  1  0  0  0
 22 51  1  0  0  0
 23 24  2  0  0  0
 23 25  1  0  0  0
 24 26  1  0  0  0
 24 52  1  0  0  0
 25 27  2  0  0  0
 25 53  1  0  0  0
 26 28  2  0  0  0
 26 54  1  0  0  0
 27 28  1  0  0  0
 27 55  1  0  0  0
 56 57  1  0  0  0
M  CHG  3   2  -1   5   1  56   1
M  END
> <LID>
L003171

> <PC_CID>
14476591

> <Names>


> <CAS_Numbers>


$$$$
131626
                    3D
 Structure written by MMmdl.
 53 55  0  0  1  0            999 V2000
    5.7297   -2.9633    0.6929 Cl  0  0  0  0  0  0
    7.1734   -0.1241    0.5336 Cl  0  0  0  0  0  0
   -1.8343    5.7125    0.6859 O   0  0  0  0  0  0
    0.8407   -0.2488    1.2440 O   0  0  0  0  0  0
   -4.5860   -3.4295    1.3339 O   0  0  0  0  0  0
   -0.9662   -0.5561   -0.0821 N   0  0  0  0  0  0
   -3.2377   -2.2442   -0.0593 N   0  0  0  0  0  0
   -1.9249   -0.4252    1.0412 C   0  0  1  0  0  0
   -1.9914    1.0060    1.6370 C   0  0  0  0  0  0
   -3.3272   -0.9929    0.7078 C   0  0  0  0  0  0
   -1.3530    3.3470    1.0843 C   0  0  0  0  0  0
   -3.2610    2.4195   -0.0095 C   0  0  0  0  0  0
   -1.9042    4.4119    0.1407 C   0  0  1  0  0  0
   -3.3421    3.9509   -0.0772 C   0  0  0  0  0  0
   -1.5868   -0.8792   -1.3767 C   0  0  0  0  0  0
   -2.4063   -2.1799   -1.2722 C   0  0  0  0  0  0
    0.3740   -0.4830    0.1277 C   0  0  0  0  0  0
   -3.8913   -3.3686    0.3197 C   0  0  0  0  0  0
    1.3370   -0.6874   -1.0584 C   0  0  0  0  0  0
   -3.7711   -4.6241   -0.5488 C   0  0  0  0  0  0
    2.7996   -0.5527   -0.6592 C   0  0  0  0  0  0
    3.5218   -1.6818   -0.2184 C   0  0  0  0  0  0
    3.4426    0.7010   -0.7299 C   0  0  0  0  0  0
    4.8754   -1.5614    0.1541 C   0  0  0  0  0  0
    4.7953    0.8236   -0.3588 C   0  0  0  0  0  0
    5.5148   -0.3040    0.0837 C   0  0  0  0  0  0
   -1.5566   -1.0769    1.8368 H   0  0  0  0  0  0
   -2.8507    1.1239    2.2988 H   0  0  0  0  0  0
   -1.1196    1.1354    2.2800 H   0  0  0  0  0  0
   -3.8962   -0.2885    0.1021 H   0  0  0  0  0  0
   -3.8941   -1.1016    1.6336 H   0  0  0  0  0  0
   -0.2632    3.3014    1.0789 H   0  0  0  0  0  0
   -1.6794    3.5470    2.1069 H   0  0  0  0  0  0
   -3.2980    1.9846   -1.0083 H   0  0  0  0  0  0
   -4.1065    2.0243    0.5550 H   0  0  0  0  0  0
   -1.3595    4.3855   -0.8044 H   0  0  0  0  0  0
   -3.9799    4.3119    0.7314 H   0  0  0  0  0  0
   -3.7626    4.3121   -1.0164 H   0  0  0  0  0  0
   -0.8883   -0.9684   -2.2064 H   0  0  0  0  0  0
   -2.2428   -0.0544   -1.6551 H   0  0  0  0  0  0
   -3.0340   -2.2897   -2.1575 H   0  0  0  0  0  0
   -1.7060   -3.0165   -1.2715 H   0  0  0  0  0  0
   -2.3346    5.7397    1.4875 H   0  0  0  0  0  0
    1.1806   -1.6778   -1.4881 H   0  0  0  0  0  0
    1.1187    0.0449   -1.8366 H   0  0  0  0  0  0
   -4.4168   -5.4156   -0.1671 H   0  0  0  0  0  0
   -4.0705   -4.4203   -1.5770 H   0  0  0  0  0  0
   -2.7481   -5.0004   -0.5458 H   0  0  0  0  0  0
    3.0360   -2.6450   -0.1606 H   0  0  0  0  0  0
    2.9000    1.5727   -1.0655 H   0  0  0  0  0  0
    5.2817    1.7864   -0.4135 H   0  0  0  0  0  0
   -1.9568    2.0828    0.6148 N   0  3  2  0  0  0
   -1.3568    1.7611   -0.1313 H   0  0  0  0  0  0
  1 24  1  0  0  0
  2 26  1  0  0  0
  3 13  1  0  0  0
  3 43  1  0  0  0
  4 17  2  0  0  0
  5 18  2  0  0  0
  6  8  1  0  0  0
  6 15  1  0  0  0
  6 17  1  0  0  0
  7 10  1  0  0  0
  7 16  1  0  0  0
  7 18  1  0  0  0
  8  9  1  0  0  0
  8 10  1  0  0  0
  8 27  1  0  0  0
  9 28  1  0  0  0
  9 29  1  0  0  0
  9 52  1  0  0  0
 10 30  1  0  0  0
 10 31  1  0  0  0
 11 13  1  0  0  0
 11 32  1  0  0  0
 11 33  1  0  0  0
 11 52  1  0  0  0
 12 14  1  0  0  0
 12 34  1  0  0  0
 12 35  1  0  0  0
 12 52  1  0  0  0
 13 14  1  0  0  0
 13 36  1  0  0  0
 14 37  1  0  0  0
 14 38  1  0  0  0
 15 16  1  0  0  0
 15 39  1  0  0  0
 15 40  1  0  0  0
 16 41  1  0  0  0
 16 42  1  0  0  0
 17 19  1  0  0  0
 18 20  1  0  0  0
 19 21  1  0  0  0
 19 44  1  0  0  0
 19 45  1  0  0  0
 20 46  1  0  0  0
 20 47  1  0  0  0
 20 48  1  0  0  0
 21 22  2  0  0  0
 21 23  1  0  0  0
 22 24  1  0  0  0
 22 49  1  0  0  0
 23 25  2  0  0  0
 23 50  1  0  0  0
 24 26  2  0  0  0
 25 26  1  0  0  0
 25 51  1  0  0  0
 52 53  1  0  0  0
M  CHG  1  52   1
M  END
> <LID>
L004338

> <PC_CID>
131626

> <Names>
GR 94839

> <CAS_Numbers>
133407-20-2

$$$$
9843934
                    3D
 Structure written by MMmdl.
 57 59  0  0  1  0            999 V2000
   -2.2054   -4.9793    2.1861 F   0  0  0  0  0  0
    6.4928    2.9220   -1.9745 F   0  0  0  0  0  0
    7.0840    1.7279   -0.2737 F   0  0  0  0  0  0
    6.3547    0.7612   -2.0712 F   0  0  0  0  0  0
    0.3567   -0.0476   -0.5363 O   0  0  0  0  0  0
   -1.5043    0.7719    0.4697 N   0  0  0  0  0  0
   -3.6090    0.4176   -0.8378 C   0  0  0  0  0  0
   -2.3971   -0.2653   -0.1084 C   0  0  2  0  0  0
   -4.3201    1.4128    0.1086 C   0  0  0  0  0  0
   -2.7348   -1.2996    1.0041 C   0  0  0  0  0  0
   -3.3498    2.4139    0.7470 C   0  0  0  0  0  0
   -2.1644    1.7014    1.4093 C   0  0  0  0  0  0
   -3.0894    1.1688   -2.0882 C   0  0  0  0  0  0
   -4.6507   -0.6009   -1.3486 C   0  0  0  0  0  0
   -3.8602   -3.4575    1.5406 C   0  0  0  0  0  0
   -2.3057   -3.4026   -0.2798 C   0  0  0  0  0  0
   -3.2448   -4.8504    1.3604 C   0  0  1  0  0  0
   -2.7463   -4.8498   -0.0795 C   0  0  0  0  0  0
   -0.1769    0.8067    0.1748 C   0  0  0  0  0  0
    0.6906    1.9522    0.7342 C   0  0  0  0  0  0
    2.1208    1.9188    0.2140 C   0  0  0  0  0  0
    3.1215    1.2291    0.9300 C   0  0  0  0  0  0
    2.4549    2.5791   -0.9869 C   0  0  0  0  0  0
    4.4444    1.1989    0.4478 C   0  0  0  0  0  0
    3.7781    2.5482   -1.4681 C   0  0  0  0  0  0
    4.7829    1.8625   -0.7515 C   0  0  0  0  0  0
    6.2104    1.8211   -1.2770 C   0  0  0  0  0  0
   -1.8671   -0.8136   -0.8870 H   0  0  0  0  0  0
   -5.1019    1.9540   -0.4261 H   0  0  0  0  0  0
   -4.8300    0.8670    0.9031 H   0  0  0  0  0  0
   -3.4658   -0.8730    1.6909 H   0  0  0  0  0  0
   -1.8475   -1.5146    1.6024 H   0  0  0  0  0  0
   -2.9832    3.1143   -0.0036 H   0  0  0  0  0  0
   -3.8778    3.0173    1.4860 H   0  0  0  0  0  0
   -1.5054    2.4592    1.8275 H   0  0  0  0  0  0
   -2.5150    1.1376    2.2736 H   0  0  0  0  0  0
   -3.8955    1.6942   -2.6015 H   0  0  0  0  0  0
   -2.3261    1.9088   -1.8497 H   0  0  0  0  0  0
   -2.6454    0.4783   -2.8062 H   0  0  0  0  0  0
   -5.4094   -0.1122   -1.9614 H   0  0  0  0  0  0
   -4.1887   -1.3732   -1.9645 H   0  0  0  0  0  0
   -5.1848   -1.0868   -0.5325 H   0  0  0  0  0  0
   -3.6982   -3.0798    2.5516 H   0  0  0  0  0  0
   -4.9376   -3.4947    1.3764 H   0  0  0  0  0  0
   -1.2983   -3.2710    0.1192 H   0  0  0  0  0  0
   -2.2887   -3.1184   -1.3324 H   0  0  0  0  0  0
   -3.9397   -5.6622    1.5788 H   0  0  0  0  0  0
   -3.5683   -5.0849   -0.7571 H   0  0  0  0  0  0
   -1.9460   -5.5690   -0.2578 H   0  0  0  0  0  0
    0.2478    2.9117    0.4636 H   0  0  0  0  0  0
    0.7103    1.8956    1.8232 H   0  0  0  0  0  0
    2.8765    0.7164    1.8487 H   0  0  0  0  0  0
    1.6958    3.1069   -1.5455 H   0  0  0  0  0  0
    5.1989    0.6610    1.0027 H   0  0  0  0  0  0
    4.0179    3.0522   -2.3927 H   0  0  0  0  0  0
   -3.2697   -2.5865    0.4943 N   0  3  2  0  0  0
   -4.0275   -2.3617   -0.1347 H   0  0  0  0  0  0
  1 17  1  0  0  0
  2 27  1  0  0  0
  3 27  1  0  0  0
  4 27  1  0  0  0
  5 19  2  0  0  0
  6  8  1  0  0  0
  6 12  1  0  0  0
  6 19  1  0  0  0
  7  8  1  0  0  0
  7  9  1  0  0  0
  7 13  1  0  0  0
  7 14  1  0  0  0
  8 10  1  0  0  0
  8 28  1  0  0  0
  9 11  1  0  0  0
  9 29  1  0  0  0
  9 30  1  0  0  0
 10 31  1  0  0  0
 10 32  1  0  0  0
 10 56  1  0  0  0
 11 12  1  0  0  0
 11 33  1  0  0  0
 11 34  1  0  0  0
 12 35  1  0  0  0
 12 36  1  0  0  0
 13 37  1  0  0  0
 13 38  1  0  0  0
 13 39  1  0  0  0
 14 40  1  0  0  0
 14 41  1  0  0  0
 14 42  1  0  0  0
 15 17  1  0  0  0
 15 43  1  0  0  0
 15 44  1  0  0  0
 15 56  1  0  0  0
 16 18  1  0  0  0
 16 45  1  0  0  0
 16 46  1  0  0  0
 16 56  1  0  0  0
 17 18  1  0  0  0
 17 47  1  0  0  0
 18 48  1  0  0  0
 18 49  1  0  0  0
 19 20  1  0  0  0
 20 21  1  0  0  0
 20 50  1  0  0  0
 20 51  1  0  0  0
 21 22  2  0  0  0
 21 23  1  0  0  0
 22 24  1  0  0  0
 22 52  1  0  0  0
 23 25  2  0  0  0
 23 53  1  0  0  0
 24 26  2  0  0  0
 24 54  1  0  0  0
 25 26  1  0  0  0
 25 55  1  0  0  0
 26 27  1  0  0  0
 56 57  1  0  0  0
M  CHG  1  56   1
M  END
> <LID>
L005484

> <PC_CID>
9843934

> <Names>


> <CAS_Numbers>


$$$$
44209887
                    3D
 Structure written by MMmdl.
 62 65  0  0  1  0            999 V2000
    0.0565    0.1600    0.6128 O   0  0  0  0  0  0
   -1.4446   -1.2536   -0.3591 N   0  0  0  0  0  0
   -3.5311   -0.9371    0.9705 C   0  0  0  0  0  0
   -2.6739   -0.4168   -0.2433 C   0  0  1  0  0  0
   -3.8402   -2.4409    0.7303 C   0  0  0  0  0  0
   -2.6038   -3.2822    0.3682 C   0  0  0  0  0  0
   -2.4169    1.1220   -0.3181 C   0  0  0  0  0  0
   -1.7978   -2.6262   -0.7622 C   0  0  0  0  0  0
   -2.8006   -0.7681    2.3237 C   0  0  0  0  0  0
   -4.8926   -0.2180    1.0867 C   0  0  0  0  0  0
   -0.1940   -0.9165    0.0699 C   0  0  0  0  0  0
   -3.4791    3.3791   -0.3640 C   0  0  0  0  0  0
   -4.1374    1.7471   -2.0358 C   0  0  0  0  0  0
    0.9620   -1.9192   -0.1270 C   0  0  0  0  0  0
   -4.2209    4.0246   -1.5000 C   0  0  0  0  0  0
   -4.5805    3.1316   -2.4152 C   0  0  0  0  0  0
    2.3085   -1.3686    0.3212 C   0  0  0  0  0  0
    4.3718   -0.1452   -0.1793 C   0  0  0  0  0  0
    3.1221   -0.6578   -0.5854 C   0  0  0  0  0  0
    4.8120   -0.3448    1.1538 C   0  0  0  0  0  0
    5.2080    0.6343   -1.1846 C   0  0  0  0  0  0
    6.1603    0.1752    1.6329 C   0  0  0  0  0  0
    6.6725    0.8127   -0.7606 C   0  0  0  0  0  0
    6.7754    1.2344    0.7078 C   0  0  0  0  0  0
    2.7522   -1.5689    1.6441 C   0  0  0  0  0  0
    3.9974   -1.0591    2.0566 C   0  0  0  0  0  0
   -3.2503   -0.6366   -1.1428 H   0  0  0  0  0  0
   -4.5545   -2.5304   -0.0897 H   0  0  0  0  0  0
   -4.3346   -2.8750    1.6004 H   0  0  0  0  0  0
   -1.9687   -3.4086    1.2456 H   0  0  0  0  0  0
   -2.9138   -4.2846    0.0713 H   0  0  0  0  0  0
   -2.0403    1.4815    0.6393 H   0  0  0  0  0  0
   -1.6520    1.3484   -1.0628 H   0  0  0  0  0  0
   -0.9517   -3.2591   -1.0215 H   0  0  0  0  0  0
   -2.3980   -2.5960   -1.6727 H   0  0  0  0  0  0
   -3.4127   -1.1362    3.1478 H   0  0  0  0  0  0
   -1.8593   -1.3143    2.3650 H   0  0  0  0  0  0
   -2.5787    0.2778    2.5345 H   0  0  0  0  0  0
   -5.5345   -0.7109    1.8181 H   0  0  0  0  0  0
   -4.7848    0.8130    1.4224 H   0  0  0  0  0  0
   -5.4305   -0.2166    0.1382 H   0  0  0  0  0  0
   -2.4376    3.7043   -0.3797 H   0  0  0  0  0  0
   -3.9198    3.6332    0.6004 H   0  0  0  0  0  0
   -4.9689    1.0422   -2.0579 H   0  0  0  0  0  0
   -3.3641    1.4103   -2.7277 H   0  0  0  0  0  0
    0.7544   -2.8304    0.4355 H   0  0  0  0  0  0
    1.0335   -2.1927   -1.1805 H   0  0  0  0  0  0
   -4.4034    5.0882   -1.5500 H   0  0  0  0  0  0
   -5.1052    3.3463   -3.3348 H   0  0  0  0  0  0
    2.7827   -0.4992   -1.5987 H   0  0  0  0  0  0
    5.1626    0.1440   -2.1577 H   0  0  0  0  0  0
    4.7450    1.6140   -1.3076 H   0  0  0  0  0  0
    6.0603    0.5788    2.6411 H   0  0  0  0  0  0
    6.8352   -0.6784    1.7047 H   0  0  0  0  0  0
    7.2060   -0.1292   -0.8950 H   0  0  0  0  0  0
    7.1633    1.5411   -1.4067 H   0  0  0  0  0  0
    6.2495    2.1809    0.8404 H   0  0  0  0  0  0
    7.8141    1.4161    0.9852 H   0  0  0  0  0  0
    2.1376   -2.1118    2.3473 H   0  0  0  0  0  0
    4.3282   -1.2203    3.0722 H   0  0  0  0  0  0
   -3.6205    1.9230   -0.6478 N   0  3  0  0  0  0
   -4.3587    1.6045   -0.0363 H   0  0  0  0  0  0
  1 11  2  0  0  0
  2  4  1  0  0  0
  2  8  1  0  0  0
  2 11  1  0  0  0
  3  4  1  0  0  0
  3  5  1  0  0  0
  3  9  1  0  0  0
  3 10  1  0  0  0
  4  7  1  0  0  0
  4 27  1  0  0  0
  5  6  1  0  0  0
  5 28  1  0  0  0
  5 29  1  0  0  0
  6  8  1  0  0  0
  6 30  1  0  0  0
  6 31  1  0  0  0
  7 32  1  0  0  0
  7 33  1  0  0  0
  7 61  1  0  0  0
  8 34  1  0  0  0
  8 35  1  0  0  0
  9 36  1  0  0  0
  9 37  1  0  0  0
  9 38  1  0  0  0
 10 39  1  0  0  0
 10 40  1  0  0  0
 10 41  1  0  0  0
 11 14  1  0  0  0
 12 15  1  0  0  0
 12 42  1  0  0  0
 12 43  1  0  0  0
 12 61  1  0  0  0
 13 16  1  0  0  0
 13 44  1  0  0  0
 13 45  1  0  0  0
 13 61  1  0  0  0
 14 17  1  0  0  0
 14 46  1  0  0  0
 14 47  1  0  0  0
 15 16  2  0  0  0
 15 48  1  0  0  0
 16 49  1  0  0  0
 17 19  2  0  0  0
 17 25  1  0  0  0
 18 19  1  0  0  0
 18 20  2  0  0  0
 18 21  1  0  0  0
 19 50  1  0  0  0
 20 22  1  0  0  0
 20 26  1  0  0  0
 21 23  1  0  0  0
 21 51  1  0  0  0
 21 52  1  0  0  0
 22 24  1  0  0  0
 22 53  1  0  0  0
 22 54  1  0  0  0
 23 24  1  0  0  0
 23 55  1  0  0  0
 23 56  1  0  0  0
 24 57  1  0  0  0
 24 58  1  0  0  0
 25 26  2  0  0  0
 25 59  1  0  0  0
 26 60  1  0  0  0
 61 62  1  0  0  0
M  CHG  1  61   1
M  END
> <LID>
L005479

> <PC_CID>
44209887

> <Names>


> <CAS_Numbers>


$$$$
9891527
                    3D
 Structure written by MMmdl.
 47 49  0  0  1  0            999 V2000
    6.0458   -0.0554   -2.2791 Cl  0  0  0  0  0  0
    6.5412    2.2544   -0.1368 Cl  0  0  0  0  0  0
    0.6368   -0.0377   -0.9113 O   0  0  0  0  0  0
   -4.7757    4.2558   -0.6491 O   0  0  0  0  0  0
   -0.6358   -1.6133    0.1167 N   0  0  0  0  0  0
   -1.8876   -1.0394   -0.4596 C   0  0  1  0  0  0
   -3.0590   -2.0482   -0.5881 C   0  0  0  0  0  0
   -2.2969    0.2421    0.3181 C   0  0  0  0  0  0
   -2.6419   -3.5071   -0.4601 C   0  0  0  0  0  0
   -0.6775   -2.8263    0.9678 C   0  0  0  0  0  0
   -1.9666   -3.6559    0.8950 C   0  0  0  0  0  0
   -4.7241    0.7137   -0.1867 C   0  0  0  0  0  0
   -3.1543    2.5241   -0.1167 C   0  0  0  0  0  0
   -5.5588    1.9617   -0.4900 C   0  0  0  0  0  0
    0.5561   -1.0136   -0.1609 C   0  0  0  0  0  0
   -4.5289    3.0694   -0.4489 C   0  0  0  0  0  0
    1.8473   -1.5518    0.4930 C   0  0  0  0  0  0
    3.0257   -0.6022    0.3297 C   0  0  0  0  0  0
    3.9027   -0.7400   -0.7671 C   0  0  0  0  0  0
    3.2497    0.4198    1.2759 C   0  0  0  0  0  0
    4.9934    0.1384   -0.9225 C   0  0  0  0  0  0
    4.3394    1.2983    1.1232 C   0  0  0  0  0  0
    5.2128    1.1616    0.0262 C   0  0  0  0  0  0
   -1.6585   -0.7486   -1.4871 H   0  0  0  0  0  0
   -3.7981   -1.8581    0.1906 H   0  0  0  0  0  0
   -3.5771   -1.8974   -1.5358 H   0  0  0  0  0  0
   -2.6466   -0.0046    1.3217 H   0  0  0  0  0  0
   -1.4122    0.8621    0.4673 H   0  0  0  0  0  0
   -3.5156   -4.1566   -0.5229 H   0  0  0  0  0  0
   -1.9670   -3.7951   -1.2674 H   0  0  0  0  0  0
   -0.4782   -2.5562    2.0057 H   0  0  0  0  0  0
    0.1244   -3.4995    0.6622 H   0  0  0  0  0  0
   -1.7457   -4.7046    1.0968 H   0  0  0  0  0  0
   -2.6525   -3.3368    1.6812 H   0  0  0  0  0  0
   -5.0200   -0.1133   -0.8309 H   0  0  0  0  0  0
   -4.8905    0.4097    0.8480 H   0  0  0  0  0  0
   -2.3743    2.9755   -0.7303 H   0  0  0  0  0  0
   -2.9377    2.7043    0.9369 H   0  0  0  0  0  0
   -6.3510    2.1199    0.2422 H   0  0  0  0  0  0
   -5.9999    1.9153   -1.4860 H   0  0  0  0  0  0
    1.6915   -1.7187    1.5592 H   0  0  0  0  0  0
    2.1043   -2.5141    0.0489 H   0  0  0  0  0  0
    3.7371   -1.5194   -1.4965 H   0  0  0  0  0  0
    2.5849    0.5348    2.1196 H   0  0  0  0  0  0
    4.5047    2.0798    1.8502 H   0  0  0  0  0  0
   -3.2987    1.0777   -0.3958 N   0  3  1  0  0  0
   -3.1197    0.9800   -1.3855 H   0  0  0  0  0  0
  1 21  1  0  0  0
  2 23  1  0  0  0
  3 15  2  0  0  0
  4 16  2  0  0  0
  5  6  1  0  0  0
  5 10  1  0  0  0
  5 15  1  0  0  0
  6  7  1  0  0  0
  6  8  1  0  0  0
  6 24  1  0  0  0
  7  9  1  0  0  0
  7 25  1  0  0  0
  7 26  1  0  0  0
  8 27  1  0  0  0
  8 28  1  0  0  0
  8 46  1  0  0  0
  9 11  1  0  0  0
  9 29  1  0  0  0
  9 30  1  0  0  0
 10 11  1  0  0  0
 10 31  1  0  0  0
 10 32  1  0  0  0
 11 33  1  0  0  0
 11 34  1  0  0  0
 12 14  1  0  0  0
 12 35  1  0  0  0
 12 36  1  0  0  0
 12 46  1  0  0  0
 13 16  1  0  0  0
 13 37  1  0  0  0
 13 38  1  0  0  0
 13 46  1  0  0  0
 14 16  1  0  0  0
 14 39  1  0  0  0
 14 40  1  0  0  0
 15 17  1  0  0  0
 17 18  1  0  0  0
 17 41  1  0  0  0
 17 42  1  0  0  0
 18 19  2  0  0  0
 18 20  1  0  0  0
 19 21  1  0  0  0
 19 43  1  0  0  0
 20 22  2  0  0  0
 20 44  1  0  0  0
 21 23  2  0  0  0
 22 23  1  0  0  0
 22 45  1  0  0  0
 46 47  1  0  0  0
M  CHG  1  46   1
M  END
> <LID>
L003135

> <PC_CID>
9891527

> <Names>


> <CAS_Numbers>


$$$$
44215641
                    3D
 Structure written by MMmdl.
 58 61  0  0  1  0            999 V2000
   -7.2445   -2.0154   -0.3294 F   0  0  0  0  0  0
   -7.7462   -0.2589    0.8372 F   0  0  0  0  0  0
   -7.2438   -0.0666   -1.2624 F   0  0  0  0  0  0
    3.1987   -1.5632    0.8326 O   0  0  0  0  0  0
   -0.6196    0.5667   -0.7659 O   0  0  0  0  0  0
    0.9423    0.4965    0.8825 N   0  0  0  0  0  0
    3.7066    3.2894   -1.2352 C   0  0  0  0  0  0
    5.5277    2.4574    0.0633 C   0  0  0  0  0  0
    3.2470    1.6016    0.5640 C   0  0  0  0  0  0
    4.8891    4.2597   -1.3608 C   0  0  0  0  0  0
    6.1073    3.4396   -0.9487 C   0  0  0  0  0  0
    2.0146    0.9006   -0.0702 C   0  0  1  0  0  0
    2.4305   -0.2361   -1.0131 C   0  0  0  0  0  0
   -0.3465    0.3757    0.4213 C   0  0  0  0  0  0
    3.0057   -1.4394   -0.5270 C   0  0  0  0  0  0
    1.2630    0.2284    2.2317 C   0  0  0  0  0  0
    2.2329   -0.0658   -2.4020 C   0  0  0  0  0  0
   -1.3861    0.0076    1.4081 C   0  0  0  0  0  0
    0.3376   -0.1448    3.1240 C   0  0  0  0  0  0
    3.3677   -2.4510   -1.4535 C   0  0  0  0  0  0
   -1.0272   -0.2636    2.6831 C   0  0  0  0  0  0
    2.5962   -1.0761   -3.3090 C   0  0  0  0  0  0
   -2.7961   -0.1825    1.0028 C   0  0  0  0  0  0
    3.1636   -2.2696   -2.8335 C   0  0  0  0  0  0
   -3.4820   -1.3671    1.3509 C   0  0  0  0  0  0
   -3.4790    0.8296    0.2928 C   0  0  0  0  0  0
    3.6945   -2.7926    1.3412 C   0  0  0  0  0  0
   -4.8289   -1.5428    0.9788 C   0  0  0  0  0  0
   -4.8258    0.6516   -0.0780 C   0  0  0  0  0  0
   -5.5080   -0.5381    0.2564 C   0  0  0  0  0  0
   -6.9660   -0.7256   -0.1368 C   0  0  0  0  0  0
    3.3733    2.9473   -2.2155 H   0  0  0  0  0  0
    2.8616    3.7834   -0.7532 H   0  0  0  0  0  0
    5.4334    2.9454    1.0352 H   0  0  0  0  0  0
    6.1471    1.5686    0.1890 H   0  0  0  0  0  0
    3.8133    0.8966    1.1720 H   0  0  0  0  0  0
    2.9378    2.4139    1.2239 H   0  0  0  0  0  0
    4.7565    5.0904   -0.6661 H   0  0  0  0  0  0
    4.9855    4.6788   -2.3630 H   0  0  0  0  0  0
    6.5012    2.8983   -1.8102 H   0  0  0  0  0  0
    6.9115    4.0499   -0.5364 H   0  0  0  0  0  0
    1.5706    1.6795   -0.6925 H   0  0  0  0  0  0
    2.2979    0.3154    2.5139 H   0  0  0  0  0  0
    1.7918    0.8437   -2.7831 H   0  0  0  0  0  0
    0.6085   -0.3555    4.1483 H   0  0  0  0  0  0
    3.8098   -3.3814   -1.1317 H   0  0  0  0  0  0
   -1.7751   -0.5671    3.4015 H   0  0  0  0  0  0
    2.4373   -0.9363   -4.3682 H   0  0  0  0  0  0
    3.4434   -3.0484   -3.5277 H   0  0  0  0  0  0
   -2.9784   -2.1500    1.8993 H   0  0  0  0  0  0
   -2.9752    1.7491    0.0324 H   0  0  0  0  0  0
    3.7430   -2.7359    2.4286 H   0  0  0  0  0  0
    3.0383   -3.6253    1.0843 H   0  0  0  0  0  0
    4.7020   -2.9977    0.9771 H   0  0  0  0  0  0
   -5.3399   -2.4541    1.2528 H   0  0  0  0  0  0
   -5.3348    1.4362   -0.6183 H   0  0  0  0  0  0
    4.1883    2.1202   -0.4590 N   0  3  0  0  0  0
    4.3346    1.3770   -1.1281 H   0  0  0  0  0  0
  1 31  1  0  0  0
  2 31  1  0  0  0
  3 31  1  0  0  0
  4 15  1  0  0  0
  4 27  1  0  0  0
  5 14  2  0  0  0
  6 12  1  0  0  0
  6 14  1  0  0  0
  6 16  1  0  0  0
  7 10  1  0  0  0
  7 32  1  0  0  0
  7 33  1  0  0  0
  7 57  1  0  0  0
  8 11  1  0  0  0
  8 34  1  0  0  0
  8 35  1  0  0  0
  8 57  1  0  0  0
  9 12  1  0  0  0
  9 36  1  0  0  0
  9 37  1  0  0  0
  9 57  1  0  0  0
 10 11  1  0  0  0
 10 38  1  0  0  0
 10 39  1  0  0  0
 11 40  1  0  0  0
 11 41  1  0  0  0
 12 13  1  0  0  0
 12 42  1  0  0  0
 13 15  1  0  0  0
 13 17  2  0  0  0
 14 18  1  0  0  0
 15 20  2  0  0  0
 16 19  2  0  0  0
 16 43  1  0  0  0
 17 22  1  0  0  0
 17 44  1  0  0  0
 18 21  2  0  0  0
 18 23  1  0  0  0
 19 21  1  0  0  0
 19 45  1  0  0  0
 20 24  1  0  0  0
 20 46  1  0  0  0
 21 47  1  0  0  0
 22 24  2  0  0  0
 22 48  1  0  0  0
 23 25  2  0  0  0
 23 26  1  0  0  0
 24 49  1  0  0  0
 25 28  1  0  0  0
 25 50  1  0  0  0
 26 29  2  0  0  0
 26 51  1  0  0  0
 27 52  1  0  0  0
 27 53  1  0  0  0
 27 54  1  0  0  0
 28 30  2  0  0  0
 28 55  1  0  0  0
 29 30  1  0  0  0
 29 56  1  0  0  0
 30 31  1  0  0  0
 57 58  1  0  0  0
M  CHG  1  57   1
M  END
> <LID>
L021889

> <PC_CID>
44215641

> <Names>


> <CAS_Numbers>


$$$$
40841
                    3D
 Structure written by MMmdl.
 42 44  0  0  1  0            999 V2000
   -4.4002   -1.3415   -0.3736 O   0  0  0  0  0  0
    0.4230   -0.8133    0.6511 C   0  0  2  0  0  0
    1.3498    0.3090    1.2120 C   0  0  1  0  0  0
    1.4888    1.5323    0.2792 C   0  0  2  0  0  0
    1.0148   -1.5289   -0.5993 C   0  0  0  0  0  0
    0.1106    2.1489   -0.0369 C   0  0  0  0  0  0
   -0.9306   -0.2108    0.2339 C   0  0  0  0  0  0
    2.3142    1.3373   -1.0168 C   0  0  0  0  0  0
   -1.0573    1.1685   -0.0976 C   0  0  0  0  0  0
    2.5150   -1.8969   -0.5551 C   0  0  0  0  0  0
    0.2496   -1.8983    1.7526 C   0  0  0  0  0  0
    3.5881    0.4771   -0.8948 C   0  0  0  0  0  0
    3.4280   -0.9750   -1.3877 C   0  0  0  0  0  0
   -2.0724   -1.0419    0.1219 C   0  0  0  0  0  0
   -2.3093    1.6822   -0.4974 C   0  0  0  0  0  0
   -3.3156   -0.5193   -0.2794 C   0  0  0  0  0  0
   -3.4360    0.8466   -0.5859 C   0  0  0  0  0  0
    2.3329   -0.0952    1.4408 H   0  0  0  0  0  0
    2.0537    2.2851    0.8326 H   0  0  0  0  0  0
    0.8159   -0.9528   -1.5009 H   0  0  0  0  0  0
    0.4472   -2.4447   -0.7712 H   0  0  0  0  0  0
    0.1486    2.7250   -0.9627 H   0  0  0  0  0  0
   -0.1344    2.8706    0.7435 H   0  0  0  0  0  0
    2.6187    2.3311   -1.3487 H   0  0  0  0  0  0
    1.6919    0.9746   -1.8334 H   0  0  0  0  0  0
    2.6147   -2.8975   -0.9776 H   0  0  0  0  0  0
    2.8849   -1.9958    0.4645 H   0  0  0  0  0  0
    1.2133   -2.2232    2.1458 H   0  0  0  0  0  0
   -0.3426   -1.5405    2.5952 H   0  0  0  0  0  0
   -0.2450   -2.7969    1.3845 H   0  0  0  0  0  0
    4.0042    0.5124    0.1117 H   0  0  0  0  0  0
    4.3515    0.9364   -1.5241 H   0  0  0  0  0  0
    3.0869   -0.9691   -2.4238 H   0  0  0  0  0  0
    4.4200   -1.4275   -1.4155 H   0  0  0  0  0  0
    1.4947    1.4912    2.8858 H   0  0  0  0  0  0
   -0.0574    1.1855    2.4123 H   0  0  0  0  0  0
   -2.0117   -2.0983    0.3321 H   0  0  0  0  0  0
   -2.4090    2.7296   -0.7427 H   0  0  0  0  0  0
   -4.3861    1.2567   -0.8956 H   0  0  0  0  0  0
   -5.1832   -0.8954   -0.6578 H   0  0  0  0  0  0
    0.8650    0.7891    2.5250 N   0  3  0  0  0  0
    0.8189    0.0130    3.1696 H   0  0  0  0  0  0
  1 16  1  0  0  0
  1 40  1  0  0  0
  2  3  1  0  0  0
  2  5  1  0  0  0
  2  7  1  0  0  0
  2 11  1  0  0  0
  3  4  1  0  0  0
  3 18  1  0  0  0
  3 41  1  0  0  0
  4  6  1  0  0  0
  4  8  1  0  0  0
  4 19  1  0  0  0
  5 10  1  0  0  0
  5 20  1  0  0  0
  5 21  1  0  0  0
  6  9  1  0  0  0
  6 22  1  0  0  0
  6 23  1  0  0  0
  7  9  2  0  0  0
  7 14  1  0  0  0
  8 12  1  0  0  0
  8 24  1  0  0  0
  8 25  1  0  0  0
  9 15  1  0  0  0
 10 13  1  0  0  0
 10 26  1  0  0  0
 10 27  1  0  0  0
 11 28  1  0  0  0
 11 29  1  0  0  0
 11 30  1  0  0  0
 12 13  1  0  0  0
 12 31  1  0  0  0
 12 32  1  0  0  0
 13 33  1  0  0  0
 13 34  1  0  0  0
 14 16  2  0  0  0
 14 37  1  0  0  0
 15 17  2  0  0  0
 15 38  1  0  0  0
 16 17  1  0  0  0
 17 39  1  0  0  0
 35 41  1  0  0  0
 36 41  1  0  0  0
 41 42  1  0  0  0
M  CHG  1  41   1
M  END
> <LID>
L000770

> <PC_CID>
40841

> <Names>
dezocine

> <CAS_Numbers>
53648-55-8

$$$$
18939039
                    3D
 Structure written by MMmdl.
 61 64  0  0  1  0            999 V2000
   -4.1992    3.9964    0.8061 Cl  0  0  0  0  0  0
   -4.8086    3.3233   -2.2510 Cl  0  0  0  0  0  0
    5.0400   -2.4876   -4.0691 O   0  0  0  0  0  0
   -0.9584   -2.4767    0.4132 O   0  0  0  0  0  0
    0.0706   -0.5440    1.0232 N   0  0  0  0  0  0
   -0.3370    4.2200   -1.0331 N   0  0  0  0  0  0
    3.1016   -2.3422   -2.5832 C   0  0  0  0  0  0
    3.8910   -0.5216   -1.2479 C   0  0  0  0  0  0
    4.2165   -1.6043   -3.3380 C   0  0  1  0  0  0
    4.9904   -0.8775   -2.2434 C   0  0  0  0  0  0
    1.5646   -1.3726   -0.8751 C   0  0  0  0  0  0
    1.4379   -0.9629    0.6201 C   0  0  2  0  0  0
    2.0449   -1.9728    1.5977 C   0  0  0  0  0  0
    0.0277    0.7976    1.6403 C   0  0  0  0  0  0
   -1.0223   -1.3512    0.9055 C   0  0  0  0  0  0
    2.7691   -1.5009    2.7149 C   0  0  0  0  0  0
    1.8954   -3.3678    1.4171 C   0  0  0  0  0  0
   -2.4091   -0.8968    1.4034 C   0  0  0  0  0  0
   -0.0839    1.9731    0.6734 C   0  0  0  0  0  0
    3.3398   -2.4045    3.6318 C   0  0  0  0  0  0
    2.4658   -4.2714    2.3342 C   0  0  0  0  0  0
   -3.0379    0.1523    0.4978 C   0  0  0  0  0  0
    3.1892   -3.7906    3.4414 C   0  0  0  0  0  0
    0.0489    3.2847    1.1733 C   0  0  0  0  0  0
   -0.3462    1.8146   -0.7065 C   0  0  0  0  0  0
   -3.3422    1.4340    1.0041 C   0  0  0  0  0  0
   -3.3263   -0.1460   -0.8515 C   0  0  0  0  0  0
   -0.0857    4.3691    0.2840 C   0  0  0  0  0  0
   -0.4648    2.9651   -1.5106 C   0  0  0  0  0  0
   -3.8859    2.4243    0.1627 C   0  0  0  0  0  0
   -3.8797    0.8387   -1.6920 C   0  0  0  0  0  0
   -4.1533    2.1266   -1.1914 C   0  0  0  0  0  0
    3.3637   -3.3860   -2.4043 H   0  0  0  0  0  0
    2.1747   -2.3318   -3.1590 H   0  0  0  0  0  0
    3.3722    0.3784   -1.5830 H   0  0  0  0  0  0
    4.2836   -0.3332   -0.2482 H   0  0  0  0  0  0
    3.7750   -0.8738   -4.0176 H   0  0  0  0  0  0
    5.7088   -1.5498   -1.7707 H   0  0  0  0  0  0
    5.5328   -0.0054   -2.6101 H   0  0  0  0  0  0
    1.1800   -0.5874   -1.5250 H   0  0  0  0  0  0
    0.9706   -2.2590   -1.0905 H   0  0  0  0  0  0
    2.0715   -0.0789    0.7009 H   0  0  0  0  0  0
   -0.7711    0.8889    2.3729 H   0  0  0  0  0  0
    0.9269    0.9470    2.2394 H   0  0  0  0  0  0
    5.7021   -1.9848   -4.5198 H   0  0  0  0  0  0
    2.8926   -0.4399    2.8756 H   0  0  0  0  0  0
    1.3406   -3.7617    0.5792 H   0  0  0  0  0  0
   -3.0754   -1.7606    1.4174 H   0  0  0  0  0  0
   -2.3626   -0.5589    2.4382 H   0  0  0  0  0  0
    3.8926   -2.0337    4.4825 H   0  0  0  0  0  0
    2.3460   -5.3350    2.1891 H   0  0  0  0  0  0
    3.6257   -4.4841    4.1452 H   0  0  0  0  0  0
    0.2423    3.4617    2.2211 H   0  0  0  0  0  0
   -0.4898    0.8432   -1.1514 H   0  0  0  0  0  0
   -3.1344    1.6723    2.0370 H   0  0  0  0  0  0
   -3.1120   -1.1274   -1.2494 H   0  0  0  0  0  0
    0.0081    5.3837    0.6418 H   0  0  0  0  0  0
   -0.6786    2.8734   -2.5652 H   0  0  0  0  0  0
   -4.0872    0.6066   -2.7262 H   0  0  0  0  0  0
    2.9645   -1.6760   -1.2651 N   0  3  1  0  0  0
    3.3203   -2.3375   -0.5888 H   0  0  0  0  0  0
  1 30  1  0  0  0
  2 32  1  0  0  0
  3  9  1  0  0  0
  3 45  1  0  0  0
  4 15  2  0  0  0
  5 12  1  0  0  0
  5 14  1  0  0  0
  5 15  1  0  0  0
  6 28  2  0  0  0
  6 29  1  0  0  0
  7  9  1  0  0  0
  7 33  1  0  0  0
  7 34  1  0  0  0
  7 60  1  0  0  0
  8 10  1  0  0  0
  8 35  1  0  0  0
  8 36  1  0  0  0
  8 60  1  0  0  0
  9 10  1  0  0  0
  9 37  1  0  0  0
 10 38  1  0  0  0
 10 39  1  0  0  0
 11 12  1  0  0  0
 11 40  1  0  0  0
 11 41  1  0  0  0
 11 60  1  0  0  0
 12 13  1  0  0  0
 12 42  1  0  0  0
 13 16  2  0  0  0
 13 17  1  0  0  0
 14 19  1  0  0  0
 14 43  1  0  0  0
 14 44  1  0  0  0
 15 18  1  0  0  0
 16 20  1  0  0  0
 16 46  1  0  0  0
 17 21  2  0  0  0
 17 47  1  0  0  0
 18 22  1  0  0  0
 18 48  1  0  0  0
 18 49  1  0  0  0
 19 24  2  0  0  0
 19 25  1  0  0  0
 20 23  2  0  0  0
 20 50  1  0  0  0
 21 23  1  0  0  0
 21 51  1  0  0  0
 22 26  2  0  0  0
 22 27  1  0  0  0
 23 52  1  0  0  0
 24 28  1  0  0  0
 24 53  1  0  0  0
 25 29  2  0  0  0
 25 54  1  0  0  0
 26 30  1  0  0  0
 26 55  1  0  0  0
 27 31  2  0  0  0
 27 56  1  0  0  0
 28 57  1  0  0  0
 29 58  1  0  0  0
 30 32  2  0  0  0
 31 32  1  0  0  0
 31 59  1  0  0  0
 60 61  1  0  0  0
M  CHG  1  60   1
M  END
> <LID>
L014571

> <PC_CID>
18939039

> <Names>


> <CAS_Numbers>


$$$$
15730170
                    3D
 Structure written by MMmdl.
 52 55  0  0  1  0            999 V2000
    2.8301   -3.3069   -1.1921 Cl  0  0  0  0  0  0
    5.5261   -1.9395   -2.2061 Cl  0  0  0  0  0  0
   -2.6669    0.4563    3.4892 S   0  0  0  0  0  0
   -0.8180    1.3473   -0.9123 O   0  0  0  0  0  0
    4.7424    3.2010   -0.9283 O   0  0  0  0  0  0
   -0.9088    0.0369    0.9448 N   0  0  0  0  0  0
   -2.3381   -0.3642    0.8531 C   0  0  2  0  0  0
   -2.8905   -0.5498   -0.5893 C   0  0  0  0  0  0
   -4.3183   -2.1245   -1.8739 C   0  0  0  0  0  0
   -5.4089   -0.5387   -0.4632 C   0  0  0  0  0  0
   -5.8218   -2.3092   -2.0470 C   0  0  0  0  0  0
   -6.3732   -0.9705   -1.5744 C   0  0  0  0  0  0
   -3.1384    0.6184    1.7378 C   0  0  0  0  0  0
    1.1521    1.4289    0.4196 C   0  0  2  0  0  0
   -0.3430   -0.3900    2.2365 C   0  0  0  0  0  0
   -0.2819    0.9164    0.1077 C   0  0  0  0  0  0
    1.2855    2.9202    0.0410 C   0  0  0  0  0  0
   -0.8560    0.5425    3.3468 C   0  0  0  0  0  0
    2.2518    0.5769   -0.2434 C   0  0  0  0  0  0
    2.7043    3.4421    0.2776 C   0  0  0  0  0  0
    3.4705    1.1749   -0.6736 C   0  0  0  0  0  0
    3.7382    2.6322   -0.5021 C   0  0  0  0  0  0
    2.0911   -0.8224   -0.4069 C   0  0  0  0  0  0
    4.4658    0.3782   -1.2851 C   0  0  0  0  0  0
    3.0894   -1.6083   -1.0108 C   0  0  0  0  0  0
    4.2809   -1.0049   -1.4570 C   0  0  0  0  0  0
   -2.4352   -1.3540    1.3020 H   0  0  0  0  0  0
   -3.0427    0.3994   -1.1032 H   0  0  0  0  0  0
   -2.1402   -1.0985   -1.1616 H   0  0  0  0  0  0
   -3.7833   -3.0726   -1.8099 H   0  0  0  0  0  0
   -3.9234   -1.5714   -2.7283 H   0  0  0  0  0  0
   -5.8300   -0.7790    0.5135 H   0  0  0  0  0  0
   -5.2431    0.5390   -0.4962 H   0  0  0  0  0  0
   -6.1057   -2.5485   -3.0724 H   0  0  0  0  0  0
   -6.1790   -3.1115   -1.3996 H   0  0  0  0  0  0
   -7.4076   -1.0350   -1.2354 H   0  0  0  0  0  0
   -6.3358   -0.2508   -2.3935 H   0  0  0  0  0  0
   -2.9804    1.6477    1.4133 H   0  0  0  0  0  0
   -4.2078    0.4319    1.6868 H   0  0  0  0  0  0
    1.3419    1.4089    1.4901 H   0  0  0  0  0  0
   -0.6372   -1.4157    2.4623 H   0  0  0  0  0  0
    0.7441   -0.4424    2.2361 H   0  0  0  0  0  0
    0.5756    3.5180    0.6142 H   0  0  0  0  0  0
    1.0382    3.0766   -1.0107 H   0  0  0  0  0  0
   -0.5660    1.5742    3.1449 H   0  0  0  0  0  0
   -0.4164    0.2705    4.3065 H   0  0  0  0  0  0
    2.9521    3.3936    1.3381 H   0  0  0  0  0  0
    2.7718    4.4893   -0.0185 H   0  0  0  0  0  0
    1.1963   -1.3239   -0.0727 H   0  0  0  0  0  0
    5.3910    0.8222   -1.6242 H   0  0  0  0  0  0
   -4.1595   -1.3229   -0.6404 N   0  3  0  0  0  0
   -4.1323   -1.9929    0.1151 H   0  0  0  0  0  0
  1 25  1  0  0  0
  2 26  1  0  0  0
  3 13  1  0  0  0
  3 18  1  0  0  0
  4 16  2  0  0  0
  5 22  2  0  0  0
  6  7  1  0  0  0
  6 15  1  0  0  0
  6 16  1  0  0  0
  7  8  1  0  0  0
  7 13  1  0  0  0
  7 27  1  0  0  0
  8 28  1  0  0  0
  8 29  1  0  0  0
  8 51  1  0  0  0
  9 11  1  0  0  0
  9 30  1  0  0  0
  9 31  1  0  0  0
  9 51  1  0  0  0
 10 12  1  0  0  0
 10 32  1  0  0  0
 10 33  1  0  0  0
 10 51  1  0  0  0
 11 12  1  0  0  0
 11 34  1  0  0  0
 11 35  1  0  0  0
 12 36  1  0  0  0
 12 37  1  0  0  0
 13 38  1  0  0  0
 13 39  1  0  0  0
 14 16  1  0  0  0
 14 17  1  0  0  0
 14 19  1  0  0  0
 14 40  1  0  0  0
 15 18  1  0  0  0
 15 41  1  0  0  0
 15 42  1  0  0  0
 17 20  1  0  0  0
 17 43  1  0  0  0
 17 44  1  0  0  0
 18 45  1  0  0  0
 18 46  1  0  0  0
 19 21  1  0  0  0
 19 23  2  0  0  0
 20 22  1  0  0  0
 20 47  1  0  0  0
 20 48  1  0  0  0
 21 22  1  0  0  0
 21 24  2  0  0  0
 23 25  1  0  0  0
 23 49  1  0  0  0
 24 26  1  0  0  0
 24 50  1  0  0  0
 25 26  2  0  0  0
 51 52  1  0  0  0
M  CHG  1  51   1
M  END
> <LID>
L004491

> <PC_CID>
15730170

> <Names>


> <CAS_Numbers>


$$$$
18939056
                    3D
 Structure written by MMmdl.
 56 58  0  0  1  0            999 V2000
    4.0484   -2.5095   -1.3519 Cl  0  0  0  0  0  0
    6.0148   -3.0239    1.1086 Cl  0  0  0  0  0  0
   -6.2094   -0.9738    2.1720 O   0  0  0  0  0  0
    0.4244    0.8474    2.3500 O   0  0  0  0  0  0
    0.3181    4.0056   -2.2660 O   0  0  0  0  0  0
    0.0067    1.1875    0.1417 N   0  0  0  0  0  0
   -4.0693   -0.1218    1.3454 C   0  0  0  0  0  0
   -4.9299    1.0121   -0.5735 C   0  0  0  0  0  0
   -5.5762    0.1126    1.5304 C   0  0  1  0  0  0
   -6.1041    0.3234    0.1142 C   0  0  0  0  0  0
   -2.4917    1.1770   -0.1106 C   0  0  0  0  0  0
   -1.2076    0.3402    0.1228 C   0  0  1  0  0  0
   -1.0173   -0.8648   -0.8036 C   0  0  0  0  0  0
    0.3181    1.8877   -1.1187 C   0  0  0  0  0  0
    0.7967    1.2514    1.2476 C   0  0  0  0  0  0
   -1.6173   -0.9424   -2.0831 C   0  0  0  0  0  0
   -0.1803   -1.9194   -0.3759 C   0  0  0  0  0  0
    0.0808    3.4056   -1.0120 C   0  0  0  0  0  0
    2.2494    1.7485    1.1416 C   0  0  0  0  0  0
   -1.3913   -2.0604   -2.9092 C   0  0  0  0  0  0
    0.0485   -3.0351   -1.2032 C   0  0  0  0  0  0
    3.2015    0.5607    1.1159 C   0  0  0  0  0  0
   -0.5594   -3.1073   -2.4701 C   0  0  0  0  0  0
    3.2173   -0.3236    0.0145 C   0  0  0  0  0  0
    4.0705    0.3265    2.2024 C   0  0  0  0  0  0
    4.0787   -1.4376    0.0028 C   0  0  0  0  0  0
    4.9394   -0.7816    2.1894 C   0  0  0  0  0  0
    4.9452   -1.6671    1.0937 C   0  0  0  0  0  0
   -3.8156   -1.1815    1.4020 H   0  0  0  0  0  0
   -3.5055    0.3923    2.1254 H   0  0  0  0  0  0
   -4.9682    0.9238   -1.6597 H   0  0  0  0  0  0
   -4.9278    2.0737   -0.3195 H   0  0  0  0  0  0
   -5.7339    1.0198    2.1157 H   0  0  0  0  0  0
   -7.0218    0.9117    0.0833 H   0  0  0  0  0  0
   -6.2997   -0.6355   -0.3692 H   0  0  0  0  0  0
   -2.4649    1.6470   -1.0938 H   0  0  0  0  0  0
   -2.5454    1.9937    0.6112 H   0  0  0  0  0  0
   -1.3488   -0.1195    1.1013 H   0  0  0  0  0  0
    1.3367    1.6775   -1.4426 H   0  0  0  0  0  0
   -0.2997    1.5030   -1.9293 H   0  0  0  0  0  0
   -7.1285   -0.7756    2.2721 H   0  0  0  0  0  0
   -2.2455   -0.1477   -2.4552 H   0  0  0  0  0  0
    0.2984   -1.8720    0.5917 H   0  0  0  0  0  0
   -0.9450    3.6193   -0.7113 H   0  0  0  0  0  0
    0.7353    3.8650   -0.2715 H   0  0  0  0  0  0
    2.4437    2.3866    0.2829 H   0  0  0  0  0  0
    2.4602    2.3673    2.0147 H   0  0  0  0  0  0
   -1.8516   -2.1121   -3.8850 H   0  0  0  0  0  0
    0.6934   -3.8337   -0.8667 H   0  0  0  0  0  0
   -0.3835   -3.9623   -3.1064 H   0  0  0  0  0  0
    0.1853    4.9384   -2.1870 H   0  0  0  0  0  0
    2.5565   -0.1623   -0.8237 H   0  0  0  0  0  0
    4.0711    0.9920    3.0534 H   0  0  0  0  0  0
    5.6001   -0.9548    3.0262 H   0  0  0  0  0  0
   -3.7269    0.3607   -0.0155 N   0  3  1  0  0  0
   -3.5778   -0.4677   -0.5749 H   0  0  0  0  0  0
  1 26  1  0  0  0
  2 28  1  0  0  0
  3  9  1  0  0  0
  3 41  1  0  0  0
  4 15  2  0  0  0
  5 18  1  0  0  0
  5 51  1  0  0  0
  6 12  1  0  0  0
  6 14  1  0  0  0
  6 15  1  0  0  0
  7  9  1  0  0  0
  7 29  1  0  0  0
  7 30  1  0  0  0
  7 55  1  0  0  0
  8 10  1  0  0  0
  8 31  1  0  0  0
  8 32  1  0  0  0
  8 55  1  0  0  0
  9 10  1  0  0  0
  9 33  1  0  0  0
 10 34  1  0  0  0
 10 35  1  0  0  0
 11 12  1  0  0  0
 11 36  1  0  0  0
 11 37  1  0  0  0
 11 55  1  0  0  0
 12 13  1  0  0  0
 12 38  1  0  0  0
 13 16  2  0  0  0
 13 17  1  0  0  0
 14 18  1  0  0  0
 14 39  1  0  0  0
 14 40  1  0  0  0
 15 19  1  0  0  0
 16 20  1  0  0  0
 16 42  1  0  0  0
 17 21  2  0  0  0
 17 43  1  0  0  0
 18 44  1  0  0  0
 18 45  1  0  0  0
 19 22  1  0  0  0
 19 46  1  0  0  0
 19 47  1  0  0  0
 20 23  2  0  0  0
 20 48  1  0  0  0
 21 23  1  0  0  0
 21 49  1  0  0  0
 22 24  2  0  0  0
 22 25  1  0  0  0
 23 50  1  0  0  0
 24 26  1  0  0  0
 24 52  1  0  0  0
 25 27  2  0  0  0
 25 53  1  0  0  0
 26 28  2  0  0  0
 27 28  1  0  0  0
 27 54  1  0  0  0
 55 56  1  0  0  0
M  CHG  1  55   1
M  END
> <LID>
L014569

> <PC_CID>
18939056

> <Names>


> <CAS_Numbers>


$$$$
10255196
                    3D
 Structure written by MMmdl.
 65 68  0  0  1  0            999 V2000
    4.1417    4.7002    4.2424 S   0  0  0  0  0  0
    3.0286    4.1908    3.0765 O   0  0  0  0  0  0
   -1.7345   -0.7592    0.7156 O   0  0  0  0  0  0
    4.2850    3.5268    5.1182 O   0  0  0  0  0  0
    5.3410    5.0405    3.4614 O   0  0  0  0  0  0
    0.2277   -1.0389   -0.3848 N   0  0  0  0  0  0
    3.4324    3.0919    2.2751 C   0  0  1  0  0  0
    2.2057    2.3390    1.7438 C   0  0  0  0  0  0
    3.8752    2.4032    0.0386 C   0  0  0  0  0  0
    4.1694    3.5367    1.0132 C   0  0  0  0  0  0
    2.1471    0.6191   -0.0794 C   0  0  0  0  0  0
    0.6160    0.3782   -0.1616 C   0  0  1  0  0  0
   -0.0528    1.3246   -1.1593 C   0  0  0  0  0  0
   -0.9568   -1.4982    0.1067 C   0  0  0  0  0  0
   -1.3646   -2.9811   -0.0976 C   0  0  0  0  0  0
    1.1484   -1.8967   -1.1500 C   0  0  0  0  0  0
   -0.0422    1.0510   -2.5459 C   0  0  0  0  0  0
   -0.6933    2.4945   -0.6938 C   0  0  0  0  0  0
   -2.2699   -3.4792    1.0321 C   0  0  0  0  0  0
   -1.9495   -3.2461   -1.4905 C   0  0  0  0  0  0
   -0.6617    1.9341   -3.4511 C   0  0  0  0  0  0
   -1.3116    3.3780   -1.5992 C   0  0  0  0  0  0
   -1.2960    3.0983   -2.9785 C   0  0  0  0  0  0
   -3.6642   -3.2402    1.0197 C   0  0  0  0  0  0
   -1.6724   -4.4787   -2.1222 C   0  0  0  0  0  0
   -1.7064   -4.1929    2.1137 C   0  0  0  0  0  0
   -2.7618   -2.2999   -2.1627 C   0  0  0  0  0  0
   -4.4782   -3.7088    2.0690 C   0  0  0  0  0  0
   -2.1865   -4.7599   -3.4027 C   0  0  0  0  0  0
   -2.5208   -4.6617    3.1627 C   0  0  0  0  0  0
   -3.2753   -2.5812   -3.4434 C   0  0  0  0  0  0
   -3.9073   -4.4204    3.1406 C   0  0  0  0  0  0
   -2.9870   -3.8105   -4.0647 C   0  0  0  0  0  0
    4.0611    2.3970    2.8342 H   0  0  0  0  0  0
    1.3143    2.9661    1.7805 H   0  0  0  0  0  0
    2.0086    1.4545    2.3513 H   0  0  0  0  0  0
    4.5470    1.5665    0.2391 H   0  0  0  0  0  0
    4.0048    2.7001   -1.0026 H   0  0  0  0  0  0
    5.2370    3.6905    1.1714 H   0  0  0  0  0  0
    3.7449    4.4693    0.6384 H   0  0  0  0  0  0
    2.6040    0.4642   -1.0565 H   0  0  0  0  0  0
    2.6179   -0.0854    0.6084 H   0  0  0  0  0  0
    0.2456    0.6530    0.8276 H   0  0  0  0  0  0
   -0.4577   -3.5808   -0.0174 H   0  0  0  0  0  0
    0.6292   -2.6032   -1.7952 H   0  0  0  0  0  0
    1.7892   -1.3386   -1.8282 H   0  0  0  0  0  0
    1.7877   -2.4624   -0.4716 H   0  0  0  0  0  0
    0.4386    0.1643   -2.9292 H   0  0  0  0  0  0
   -0.7196    2.7192    0.3624 H   0  0  0  0  0  0
   -0.6506    1.7176   -4.5092 H   0  0  0  0  0  0
   -1.8007    4.2695   -1.2349 H   0  0  0  0  0  0
   -1.7716    3.7751   -3.6731 H   0  0  0  0  0  0
   -4.1189   -2.6901    0.2098 H   0  0  0  0  0  0
   -1.0610   -5.2172   -1.6244 H   0  0  0  0  0  0
   -0.6438   -4.3844    2.1455 H   0  0  0  0  0  0
   -3.0039   -1.3524   -1.7041 H   0  0  0  0  0  0
   -5.5416   -3.5203    2.0518 H   0  0  0  0  0  0
   -1.9670   -5.7053   -3.8767 H   0  0  0  0  0  0
   -2.0811   -5.2063    3.9853 H   0  0  0  0  0  0
   -3.8929   -1.8532   -3.9483 H   0  0  0  0  0  0
   -4.5318   -4.7794    3.9454 H   0  0  0  0  0  0
   -3.3818   -4.0262   -5.0467 H   0  0  0  0  0  0
    3.4675    5.8501    4.8630 O   0  5  0  0  0  0
    2.4814    2.0070    0.3243 N   0  3  1  0  0  0
    1.9015    2.6241   -0.2274 H   0  0  0  0  0  0
  1  2  1  0  0  0
  1  4  2  0  0  0
  1  5  2  0  0  0
  1 63  1  0  0  0
  2  7  1  0  0  0
  3 14  2  0  0  0
  6 12  1  0  0  0
  6 14  1  0  0  0
  6 16  1  0  0  0
  7  8  1  0  0  0
  7 10  1  0  0  0
  7 34  1  0  0  0
  8 35  1  0  0  0
  8 36  1  0  0  0
  8 64  1  0  0  0
  9 10  1  0  0  0
  9 37  1  0  0  0
  9 38  1  0  0  0
  9 64  1  0  0  0
 10 39  1  0  0  0
 10 40  1  0  0  0
 11 12  1  0  0  0
 11 41  1  0  0  0
 11 42  1  0  0  0
 11 64  1  0  0  0
 12 13  1  0  0  0
 12 43  1  0  0  0
 13 17  2  0  0  0
 13 18  1  0  0  0
 14 15  1  0  0  0
 15 19  1  0  0  0
 15 20  1  0  0  0
 15 44  1  0  0  0
 16 45  1  0  0  0
 16 46  1  0  0  0
 16 47  1  0  0  0
 17 21  1  0  0  0
 17 48  1  0  0  0
 18 22  2  0  0  0
 18 49  1  0  0  0
 19 24  2  0  0  0
 19 26  1  0  0  0
 20 25  2  0  0  0
 20 27  1  0  0  0
 21 23  2  0  0  0
 21 50  1  0  0  0
 22 23  1  0  0  0
 22 51  1  0  0  0
 23 52  1  0  0  0
 24 28  1  0  0  0
 24 53  1  0  0  0
 25 29  1  0  0  0
 25 54  1  0  0  0
 26 30  2  0  0  0
 26 55  1  0  0  0
 27 31  2  0  0  0
 27 56  1  0  0  0
 28 32  2  0  0  0
 28 57  1  0  0  0
 29 33  2  0  0  0
 29 58  1  0  0  0
 30 32  1  0  0  0
 30 59  1  0  0  0
 31 33  1  0  0  0
 31 60  1  0  0  0
 32 61  1  0  0  0
 33 62  1  0  0  0
 64 65  1  0  0  0
M  CHG  2  63  -1  64   1
M  END
> <LID>
L023054

> <PC_CID>
10255196

> <Names>


> <CAS_Numbers>


$$$$
22965880
                    3D
 Structure written by MMmdl.
 78 84  0  0  1  0            999 V2000
    7.4927    1.7934    0.3857 O   0  0  0  0  0  0
   10.5896    0.8014   -1.7947 O   0  0  0  0  0  0
    5.9047    3.9403   -0.8913 O   0  0  0  0  0  0
    6.5170   -1.5538   -1.5345 O   0  0  0  0  0  0
    0.6363   -5.9561   -1.3310 O   0  0  0  0  0  0
   12.7830    2.6125    0.6800 N   0  3  2  0  0  0
    7.4451   -1.2639    0.5181 N   0  0  0  0  0  0
    9.8910    1.7852    0.3796 C   0  0  2  0  0  0
   10.9815    1.0870   -0.4521 C   0  0  2  0  0  0
   12.1433    2.1418   -0.6177 C   0  0  1  0  0  0
    8.6151    0.9518    0.7238 C   0  0  2  0  0  0
   10.4859    2.3021    1.7192 C   0  0  0  0  0  0
   11.7335    3.1915    1.5719 C   0  0  0  0  0  0
    9.3471    2.9112   -0.4273 C   0  0  0  0  0  0
   11.1930   -0.3435    0.0998 C   0  0  0  0  0  0
   11.5714    3.3521   -1.4681 C   0  0  0  0  0  0
    8.5530   -0.4229    0.0040 C   0  0  1  0  0  0
   13.8207    3.6858    0.4678 C   0  0  0  0  0  0
    9.9054   -1.2101   -0.0068 C   0  0  0  0  0  0
   10.1092    3.7759   -1.2306 C   0  0  0  0  0  0
   14.9192    3.3556   -0.5393 C   0  0  0  0  0  0
   13.4906    1.4983    1.3839 C   0  0  0  0  0  0
    7.9730    2.8703   -0.3093 C   0  0  0  0  0  0
   16.1870    4.1802   -0.5476 C   0  0  0  0  0  0
   16.2333    2.7387   -0.1118 C   0  0  0  0  0  0
    9.3783    4.7889   -1.8869 C   0  0  0  0  0  0
    7.2654    3.8959   -0.9691 C   0  0  0  0  0  0
    7.9698    4.8632   -1.7316 C   0  0  0  0  0  0
    7.5149   -1.5994    1.9516 C   0  0  0  0  0  0
    6.4693   -1.7277   -0.3148 C   0  0  0  0  0  0
    5.3513   -2.4096    0.3371 C   0  0  0  0  0  0
    4.4818   -3.1455   -0.3858 C   0  0  0  0  0  0
    3.3102   -3.8767    0.1322 C   0  0  0  0  0  0
    2.4975   -4.5821   -0.7819 C   0  0  0  0  0  0
    2.9661   -3.8991    1.5032 C   0  0  0  0  0  0
    1.3614   -5.3018   -0.3582 C   0  0  0  0  0  0
    1.8355   -4.6128    1.9418 C   0  0  0  0  0  0
    1.0348   -5.3116    1.0199 C   0  0  0  0  0  0
   -0.5128   -6.6878   -0.9299 C   0  0  0  0  0  0
   12.9273    1.6656   -1.2069 H   0  0  0  0  0  0
    8.5705    0.7943    1.8005 H   0  0  0  0  0  0
    9.7264    2.8653    2.2639 H   0  0  0  0  0  0
   10.7241    1.4594    2.3672 H   0  0  0  0  0  0
   12.1542    3.3959    2.5580 H   0  0  0  0  0  0
   11.4137    4.1619    1.1901 H   0  0  0  0  0  0
   11.4442   -0.3315    1.1535 H   0  0  0  0  0  0
   12.0243   -0.8398   -0.4031 H   0  0  0  0  0  0
   12.1940    4.2407   -1.4703 H   0  0  0  0  0  0
   11.5998    3.0483   -2.5152 H   0  0  0  0  0  0
    8.3601   -0.1575   -1.0350 H   0  0  0  0  0  0
   14.2946    3.9307    1.4204 H   0  0  0  0  0  0
   13.3726    4.6339    0.1758 H   0  0  0  0  0  0
    9.9395   -1.9554    0.7875 H   0  0  0  0  0  0
    9.9444   -1.7935   -0.9277 H   0  0  0  0  0  0
   14.5623    3.1067   -1.5359 H   0  0  0  0  0  0
   14.0186    0.8495    0.6839 H   0  0  0  0  0  0
   14.2314    1.8680    2.0939 H   0  0  0  0  0  0
   12.8407    0.8845    1.9957 H   0  0  0  0  0  0
    9.8350    0.2325   -1.7773 H   0  0  0  0  0  0
   16.3067    4.9399    0.2225 H   0  0  0  0  0  0
   16.6208    4.4262   -1.5149 H   0  0  0  0  0  0
   16.6935    2.0219   -0.7889 H   0  0  0  0  0  0
   16.3881    2.5433    0.9474 H   0  0  0  0  0  0
    9.8840    5.4819   -2.5431 H   0  0  0  0  0  0
    7.4206    5.6381   -2.2461 H   0  0  0  0  0  0
    6.7482   -1.0596    2.5087 H   0  0  0  0  0  0
    7.3801   -2.6696    2.1160 H   0  0  0  0  0  0
    8.4742   -1.3447    2.4012 H   0  0  0  0  0  0
    5.5502    3.2331   -0.3738 H   0  0  0  0  0  0
    5.1979   -2.3207    1.3994 H   0  0  0  0  0  0
    4.6327   -3.2289   -1.4535 H   0  0  0  0  0  0
    2.7453   -4.5752   -1.8335 H   0  0  0  0  0  0
    3.5565   -3.3757    2.2389 H   0  0  0  0  0  0
    1.5810   -4.6242    2.9914 H   0  0  0  0  0  0
    0.1760   -5.8471    1.3950 H   0  0  0  0  0  0
   -0.9730   -7.1434   -1.8065 H   0  0  0  0  0  0
   -0.2531   -7.4911   -0.2391 H   0  0  0  0  0  0
   -1.2574   -6.0388   -0.4668 H   0  0  0  0  0  0
  1 11  1  0  0  0
  1 23  1  0  0  0
  2  9  1  0  0  0
  2 59  1  0  0  0
  3 27  1  0  0  0
  3 69  1  0  0  0
  4 30  2  0  0  0
  5 36  1  0  0  0
  5 39  1  0  0  0
  6 10  1  0  0  0
  6 13  1  0  0  0
  6 18  1  0  0  0
  6 22  1  0  0  0
  7 17  1  0  0  0
  7 29  1  0  0  0
  7 30  1  0  0  0
  8  9  1  0  0  0
  8 11  1  0  0  0
  8 12  1  0  0  0
  8 14  1  0  0  0
  9 10  1  0  0  0
  9 15  1  0  0  0
 10 16  1  0  0  0
 10 40  1  0  0  0
 11 17  1  0  0  0
 11 41  1  0  0  0
 12 13  1  0  0  0
 12 42  1  0  0  0
 12 43  1  0  0  0
 13 44  1  0  0  0
 13 45  1  0  0  0
 14 20  2  0  0  0
 14 23  1  0  0  0
 15 19  1  0  0  0
 15 46  1  0  0  0
 15 47  1  0  0  0
 16 20  1  0  0  0
 16 48  1  0  0  0
 16 49  1  0  0  0
 17 19  1  0  0  0
 17 50  1  0  0  0
 18 21  1  0  0  0
 18 51  1  0  0  0
 18 52  1  0  0  0
 19 53  1  0  0  0
 19 54  1  0  0  0
 20 26  1  0  0  0
 21 24  1  0  0  0
 21 25  1  0  0  0
 21 55  1  0  0  0
 22 56  1  0  0  0
 22 57  1  0  0  0
 22 58  1  0  0  0
 23 27  2  0  0  0
 24 25  1  0  0  0
 24 60  1  0  0  0
 24 61  1  0  0  0
 25 62  1  0  0  0
 25 63  1  0  0  0
 26 28  2  0  0  0
 26 64  1  0  0  0
 27 28  1  0  0  0
 28 65  1  0  0  0
 29 66  1  0  0  0
 29 67  1  0  0  0
 29 68  1  0  0  0
 30 31  1  0  0  0
 31 32  2  0  0  0
 31 70  1  0  0  0
 32 33  1  0  0  0
 32 71  1  0  0  0
 33 34  2  0  0  0
 33 35  1  0  0  0
 34 36  1  0  0  0
 34 72  1  0  0  0
 35 37  2  0  0  0
 35 73  1  0  0  0
 36 38  2  0  0  0
 37 38  1  0  0  0
 37 74  1  0  0  0
 38 75  1  0  0  0
 39 76  1  0  0  0
 39 77  1  0  0  0
 39 78  1  0  0  0
M  CHG  1   6   1
M  END
> <LID>
L017892

> <PC_CID>
22965880

> <Names>


> <CAS_Numbers>


$$$$
23041955
                    3D
 Structure written by MMmdl.
 53 55  0  0  1  0            999 V2000
    6.4313   -0.7226    1.5654 Cl  0  0  0  0  0  0
    7.4427   -0.1153   -1.3974 Cl  0  0  0  0  0  0
    1.1598   -0.3987   -0.3437 O   0  0  0  0  0  0
   -4.2180    1.6748   -2.3752 O   0  0  0  0  0  0
   -0.4451    0.9970    0.4279 N   0  0  0  0  0  0
   -2.7552    2.0976   -0.6891 N   0  0  0  0  0  0
   -1.5425    0.0572    0.1107 C   0  0  2  0  0  0
   -2.9056    0.7804   -0.0526 C   0  0  0  0  0  0
   -1.6135   -1.0797    1.1594 C   0  0  0  0  0  0
   -0.8938    2.2810    0.9867 C   0  0  0  0  0  0
   -1.8114    3.0065   -0.0173 C   0  0  0  0  0  0
   -2.9881   -2.9318    2.0360 C   0  0  0  0  0  0
   -2.3126   -2.9353   -0.3415 C   0  0  0  0  0  0
    0.8455    0.6935    0.1347 C   0  0  0  0  0  0
   -4.2284   -3.8051    1.7692 C   0  0  0  0  0  0
   -3.4457    2.4432   -1.8019 C   0  0  0  0  0  0
    1.9447    1.7400    0.4036 C   0  0  0  0  0  0
   -3.2964   -4.0777   -0.5360 C   0  0  0  0  0  0
   -4.1596   -4.4732    0.4124 C   0  0  0  0  0  0
   -3.2715    3.8522   -2.3752 C   0  0  0  0  0  0
    3.3234    1.2734   -0.0413 C   0  0  0  0  0  0
    4.1588    0.5723    0.8539 C   0  0  0  0  0  0
    3.7754    1.5415   -1.3503 C   0  0  0  0  0  0
    5.4351    0.1369    0.4455 C   0  0  0  0  0  0
    5.0507    1.1080   -1.7606 C   0  0  0  0  0  0
    5.8830    0.4057   -0.8669 C   0  0  0  0  0  0
   -1.3136   -0.3674   -0.8678 H   0  0  0  0  0  0
   -3.5982    0.1286   -0.5867 H   0  0  0  0  0  0
   -3.3626    0.9453    0.9245 H   0  0  0  0  0  0
   -0.6484   -1.5764    1.2682 H   0  0  0  0  0  0
   -1.8314   -0.6308    2.1296 H   0  0  0  0  0  0
   -0.0919    2.9491    1.2956 H   0  0  0  0  0  0
   -1.4469    2.0709    1.9034 H   0  0  0  0  0  0
   -2.3592    3.8039    0.4866 H   0  0  0  0  0  0
   -1.1717    3.4809   -0.7627 H   0  0  0  0  0  0
   -2.1325   -3.5608    2.2880 H   0  0  0  0  0  0
   -3.1800   -2.2986    2.9032 H   0  0  0  0  0  0
   -2.3317   -2.3203   -1.2406 H   0  0  0  0  0  0
   -1.3088   -3.3523   -0.2492 H   0  0  0  0  0  0
   -4.3214   -4.5666    2.5439 H   0  0  0  0  0  0
   -5.1355   -3.2007    1.8051 H   0  0  0  0  0  0
    1.7035    2.6660   -0.1202 H   0  0  0  0  0  0
    1.9771    1.9673    1.4699 H   0  0  0  0  0  0
   -3.2707   -4.5887   -1.4876 H   0  0  0  0  0  0
   -4.8493   -5.2825    0.2209 H   0  0  0  0  0  0
   -3.9828    4.0264   -3.1832 H   0  0  0  0  0  0
   -3.4453    4.6113   -1.6122 H   0  0  0  0  0  0
   -2.2684    3.9820   -2.7818 H   0  0  0  0  0  0
    3.8193    0.3625    1.8578 H   0  0  0  0  0  0
    3.1442    2.0768   -2.0446 H   0  0  0  0  0  0
    5.3903    1.3148   -2.7649 H   0  0  0  0  0  0
   -2.6461   -2.1031    0.8508 N   0  3  2  0  0  0
   -3.4910   -1.5986    0.6231 H   0  0  0  0  0  0
  1 24  1  0  0  0
  2 26  1  0  0  0
  3 14  2  0  0  0
  4 16  2  0  0  0
  5  7  1  0  0  0
  5 10  1  0  0  0
  5 14  1  0  0  0
  6  8  1  0  0  0
  6 11  1  0  0  0
  6 16  1  0  0  0
  7  8  1  0  0  0
  7  9  1  0  0  0
  7 27  1  0  0  0
  8 28  1  0  0  0
  8 29  1  0  0  0
  9 30  1  0  0  0
  9 31  1  0  0  0
  9 52  1  0  0  0
 10 11  1  0  0  0
 10 32  1  0  0  0
 10 33  1  0  0  0
 11 34  1  0  0  0
 11 35  1  0  0  0
 12 15  1  0  0  0
 12 36  1  0  0  0
 12 37  1  0  0  0
 12 52  1  0  0  0
 13 18  1  0  0  0
 13 38  1  0  0  0
 13 39  1  0  0  0
 13 52  1  0  0  0
 14 17  1  0  0  0
 15 19  1  0  0  0
 15 40  1  0  0  0
 15 41  1  0  0  0
 16 20  1  0  0  0
 17 21  1  0  0  0
 17 42  1  0  0  0
 17 43  1  0  0  0
 18 19  2  0  0  0
 18 44  1  0  0  0
 19 45  1  0  0  0
 20 46  1  0  0  0
 20 47  1  0  0  0
 20 48  1  0  0  0
 21 22  2  0  0  0
 21 23  1  0  0  0
 22 24  1  0  0  0
 22 49  1  0  0  0
 23 25  2  0  0  0
 23 50  1  0  0  0
 24 26  2  0  0  0
 25 26  1  0  0  0
 25 51  1  0  0  0
 52 53  1  0  0  0
M  CHG  1  52   1
M  END
> <LID>
L003488

> <PC_CID>
23041955

> <Names>


> <CAS_Numbers>


$$$$
44214375
                    3D
 Structure written by MMmdl.
 63 67  0  0  1  0            999 V2000
   11.0270    5.9009    2.1413 Cl  0  0  0  0  0  0
    6.9281   -0.8425    0.4425 O   0  0  0  0  0  0
    4.8084   -0.8181   -0.3852 N   0  0  0  0  0  0
    3.8245   -3.0385    0.3400 C   0  0  1  0  0  0
    4.7555   -2.2765   -0.6432 C   0  0  1  0  0  0
    3.8648   -4.5619    0.0522 C   0  0  0  0  0  0
    4.3955   -2.5883   -2.1134 C   0  0  0  0  0  0
    3.5063   -4.8583   -1.4135 C   0  0  0  0  0  0
    4.4294   -4.1012   -2.3815 C   0  0  0  0  0  0
    5.3795   -3.1645    2.3444 C   0  0  0  0  0  0
    3.0108   -2.9941    2.7165 C   0  0  0  0  0  0
    3.6973   -3.3338    4.0387 C   0  0  0  0  0  0
    5.0067   -3.9706    3.5893 C   0  0  0  0  0  0
    5.9062    1.2722    0.2131 C   0  0  1  0  0  0
    5.9284   -0.2147    0.0923 C   0  0  0  0  0  0
    7.1099    2.0332   -0.2907 C   0  0  0  0  0  0
    6.0708    2.1216   -1.0442 C   0  0  0  0  0  0
    3.5821   -0.0586   -0.6713 C   0  0  0  0  0  0
    8.0559    3.0076    0.2757 C   0  0  0  0  0  0
    5.2730    3.2567   -1.5336 C   0  0  0  0  0  0
    8.2988    4.2613   -0.3274 C   0  0  0  0  0  0
    8.7531    2.6495    1.4478 C   0  0  0  0  0  0
    4.6039    3.1171   -2.7666 C   0  0  0  0  0  0
    5.1390    4.4536   -0.7956 C   0  0  0  0  0  0
    9.2176    5.1574    0.2529 C   0  0  0  0  0  0
    9.6714    3.5467    2.0273 C   0  0  0  0  0  0
    3.8205    4.1740   -3.2698 C   0  0  0  0  0  0
    4.3554    5.5095   -1.3002 C   0  0  0  0  0  0
    9.9020    4.8021    1.4316 C   0  0  0  0  0  0
    3.6983    5.3711   -2.5381 C   0  0  0  0  0  0
    2.8026   -2.7100    0.1476 H   0  0  0  0  0  0
    5.7517   -2.7009   -0.5105 H   0  0  0  0  0  0
    3.1745   -5.1022    0.6989 H   0  0  0  0  0  0
    4.8534   -4.9730    0.2535 H   0  0  0  0  0  0
    5.0939   -2.0840   -2.7825 H   0  0  0  0  0  0
    3.4038   -2.2112   -2.3630 H   0  0  0  0  0  0
    3.5732   -5.9304   -1.6016 H   0  0  0  0  0  0
    2.4693   -4.5772   -1.6016 H   0  0  0  0  0  0
    4.1325   -4.3021   -3.4113 H   0  0  0  0  0  0
    5.4507   -4.4702   -2.2782 H   0  0  0  0  0  0
    2.4329   -3.8553    2.3822 H   0  0  0  0  0  0
    2.3201   -2.1559    2.8127 H   0  0  0  0  0  0
    6.0062   -3.7309    1.6569 H   0  0  0  0  0  0
    5.9551   -2.2870    2.6408 H   0  0  0  0  0  0
    4.8363   -5.0135    3.3179 H   0  0  0  0  0  0
    5.7793   -3.9445    4.3584 H   0  0  0  0  0  0
    3.0992   -3.9910    4.6707 H   0  0  0  0  0  0
    3.9022   -2.4206    4.5994 H   0  0  0  0  0  0
    5.3930    1.6653    1.0885 H   0  0  0  0  0  0
    2.7118   -0.6966   -0.8155 H   0  0  0  0  0  0
    3.7029    0.5271   -1.5825 H   0  0  0  0  0  0
    3.3298    0.6207    0.1440 H   0  0  0  0  0  0
    7.7994    4.5397   -1.2431 H   0  0  0  0  0  0
    8.5818    1.6875    1.9091 H   0  0  0  0  0  0
    4.6931    2.2014   -3.3330 H   0  0  0  0  0  0
    5.6211    4.5657    0.1641 H   0  0  0  0  0  0
    9.4005    6.1157   -0.2108 H   0  0  0  0  0  0
   10.1992    3.2703    2.9282 H   0  0  0  0  0  0
    3.3129    4.0663   -4.2171 H   0  0  0  0  0  0
    4.2545    6.4243   -0.7349 H   0  0  0  0  0  0
    3.0969    6.1811   -2.9240 H   0  0  0  0  0  0
    4.1017   -2.6817    1.7620 N   0  3  0  0  0  0
    4.1780   -1.6745    1.7712 H   0  0  0  0  0  0
  1 29  1  0  0  0
  2 15  2  0  0  0
  3  5  1  0  0  0
  3 15  1  0  0  0
  3 18  1  0  0  0
  4  5  1  0  0  0
  4  6  1  0  0  0
  4 31  1  0  0  0
  4 62  1  0  0  0
  5  7  1  0  0  0
  5 32  1  0  0  0
  6  8  1  0  0  0
  6 33  1  0  0  0
  6 34  1  0  0  0
  7  9  1  0  0  0
  7 35  1  0  0  0
  7 36  1  0  0  0
  8  9  1  0  0  0
  8 37  1  0  0  0
  8 38  1  0  0  0
  9 39  1  0  0  0
  9 40  1  0  0  0
 10 13  1  0  0  0
 10 43  1  0  0  0
 10 44  1  0  0  0
 10 62  1  0  0  0
 11 12  1  0  0  0
 11 41  1  0  0  0
 11 42  1  0  0  0
 11 62  1  0  0  0
 12 13  1  0  0  0
 12 47  1  0  0  0
 12 48  1  0  0  0
 13 45  1  0  0  0
 13 46  1  0  0  0
 14 15  1  0  0  0
 14 16  1  0  0  0
 14 17  1  0  0  0
 14 49  1  0  0  0
 16 17  2  0  0  0
 16 19  1  0  0  0
 17 20  1  0  0  0
 18 50  1  0  0  0
 18 51  1  0  0  0
 18 52  1  0  0  0
 19 21  2  0  0  0
 19 22  1  0  0  0
 20 23  2  0  0  0
 20 24  1  0  0  0
 21 25  1  0  0  0
 21 53  1  0  0  0
 22 26  2  0  0  0
 22 54  1  0  0  0
 23 27  1  0  0  0
 23 55  1  0  0  0
 24 28  2  0  0  0
 24 56  1  0  0  0
 25 29  2  0  0  0
 25 57  1  0  0  0
 26 29  1  0  0  0
 26 58  1  0  0  0
 27 30  2  0  0  0
 27 59  1  0  0  0
 28 30  1  0  0  0
 28 60  1  0  0  0
 30 61  1  0  0  0
 62 63  1  0  0  0
M  CHG  1  62   1
M  END
> <LID>
L017502

> <PC_CID>
44214375

> <Names>


> <CAS_Numbers>


$$$$
19362297
                    3D
 Structure written by MMmdl.
 29 31  0  0  1  0            999 V2000
    5.0428   -2.3944   -0.2152 Cl  0  0  0  0  0  0
    0.3213    4.1424    0.7316 O   0  0  0  0  0  0
   -0.5490    1.9460    0.9100 C   0  0  2  0  0  0
    0.2009    1.1778   -0.1492 C   0  0  0  0  0  0
   -1.0762    1.0155   -0.1761 C   0  0  0  0  0  0
    1.3608    0.2734   -0.1805 C   0  0  0  0  0  0
   -1.9465   -0.1670   -0.0788 C   0  0  0  0  0  0
   -0.7190    3.4486    0.7230 C   0  0  0  0  0  0
    1.3030   -1.0063   -0.7748 C   0  0  0  0  0  0
    2.5700    0.7278    0.3844 C   0  0  0  0  0  0
   -1.5610   -1.3321    0.6205 C   0  0  0  0  0  0
   -3.2174   -0.1050   -0.6857 C   0  0  0  0  0  0
    2.4438   -1.8325   -0.7827 C   0  0  0  0  0  0
    3.7099   -0.0995    0.3763 C   0  0  0  0  0  0
   -2.4346   -2.4348    0.6905 C   0  0  0  0  0  0
   -4.0900   -1.2085   -0.6151 C   0  0  0  0  0  0
    3.6464   -1.3810   -0.2048 C   0  0  0  0  0  0
   -3.6976   -2.3746    0.0701 C   0  0  0  0  0  0
   -0.5245    1.6008    1.9413 H   0  0  0  0  0  0
    0.3947   -1.3570   -1.2412 H   0  0  0  0  0  0
    2.6238    1.7108    0.8305 H   0  0  0  0  0  0
   -0.6051   -1.3836    1.1197 H   0  0  0  0  0  0
   -3.5245    0.7883   -1.2104 H   0  0  0  0  0  0
    2.3960   -2.8110   -1.2375 H   0  0  0  0  0  0
    4.6323    0.2511    0.8154 H   0  0  0  0  0  0
   -2.1377   -3.3248    1.2253 H   0  0  0  0  0  0
   -5.0610   -1.1592   -1.0855 H   0  0  0  0  0  0
   -4.3675   -3.2200    0.1253 H   0  0  0  0  0  0
   -1.8847    3.8782    0.5809 O   0  5  0  0  0  0
  1 17  1  0  0  0
  2  8  2  0  0  0
  3  4  1  0  0  0
  3  5  1  0  0  0
  3  8  1  0  0  0
  3 19  1  0  0  0
  4  5  2  0  0  0
  4  6  1  0  0  0
  5  7  1  0  0  0
  6  9  2  0  0  0
  6 10  1  0  0  0
  7 11  2  0  0  0
  7 12  1  0  0  0
  8 29  1  0  0  0
  9 13  1  0  0  0
  9 20  1  0  0  0
 10 14  2  0  0  0
 10 21  1  0  0  0
 11 15  1  0  0  0
 11 22  1  0  0  0
 12 16  2  0  0  0
 12 23  1  0  0  0
 13 17  2  0  0  0
 13 24  1  0  0  0
 14 17  1  0  0  0
 14 25  1  0  0  0
 15 18  2  0  0  0
 15 26  1  0  0  0
 16 18  1  0  0  0
 16 27  1  0  0  0
 18 28  1  0  0  0
M  CHG  1  29  -1
M  END
> <LID>
L017501

> <PC_CID>
19362297

> <Names>


> <CAS_Numbers>


$$$$
15645957
                    3D
 Structure written by MMmdl.
 55 57  0  0  1  0            999 V2000
   -4.9318    2.8232    2.8707 Cl  0  0  0  0  0  0
   -7.1580    0.9274    1.5980 Cl  0  0  0  0  0  0
   -1.0363   -0.4743    0.4884 O   0  0  0  0  0  0
    4.6164    1.5052    1.4586 O   0  0  0  0  0  0
    0.6329    0.3447   -0.8007 N   0  0  0  0  0  0
    3.1154    1.4864   -0.2403 N   0  0  0  0  0  0
    1.6523   -0.5453   -0.2040 C   0  0  1  0  0  0
    1.5297   -1.9806   -0.7691 C   0  0  0  0  0  0
    3.0881    0.0208   -0.3642 C   0  0  0  0  0  0
    2.5534   -4.2518   -0.7968 C   0  0  0  0  0  0
    2.1809   -3.1959    1.3149 C   0  0  0  0  0  0
    1.1618    1.2778   -1.8067 C   0  0  0  0  0  0
    2.4674   -5.3281    0.2927 C   0  0  0  0  0  0
    2.7588   -4.5804    1.5885 C   0  0  0  0  0  0
    2.2249    2.1977   -1.1735 C   0  0  0  0  0  0
   -0.6535    0.3277   -0.3665 C   0  0  0  0  0  0
    3.9043    2.1191    0.6623 C   0  0  0  0  0  0
   -1.6592    1.3374   -0.9534 C   0  0  0  0  0  0
    3.9146    3.6588    0.6850 C   0  0  0  0  0  0
   -3.0352    1.2393   -0.3103 C   0  0  0  0  0  0
    5.0100    4.2578    1.5826 C   0  0  0  0  0  0
   -3.3314    1.9865    0.8493 C   0  0  0  0  0  0
   -4.0235    0.4033   -0.8711 C   0  0  0  0  0  0
   -4.6033    1.8976    1.4492 C   0  0  0  0  0  0
   -5.2954    0.3134   -0.2739 C   0  0  0  0  0  0
   -5.5893    1.0578    0.8856 C   0  0  0  0  0  0
    1.4621   -0.5696    0.8707 H   0  0  0  0  0  0
    0.5099   -2.3554   -0.6708 H   0  0  0  0  0  0
    1.7456   -1.9589   -1.8385 H   0  0  0  0  0  0
    3.7547   -0.4784    0.3402 H   0  0  0  0  0  0
    3.4808   -0.2259   -1.3520 H   0  0  0  0  0  0
    3.5101   -4.3011   -1.3178 H   0  0  0  0  0  0
    1.7668   -4.3948   -1.5394 H   0  0  0  0  0  0
    1.1038   -3.2087    1.4912 H   0  0  0  0  0  0
    2.6185   -2.4300    1.9560 H   0  0  0  0  0  0
    0.4085    1.8823   -2.3087 H   0  0  0  0  0  0
    1.6164    0.6863   -2.6028 H   0  0  0  0  0  0
    1.4558   -5.7351    0.3268 H   0  0  0  0  0  0
    3.1534   -6.1584    0.1215 H   0  0  0  0  0  0
    3.8362   -4.5113    1.7454 H   0  0  0  0  0  0
    2.3192   -5.0589    2.4643 H   0  0  0  0  0  0
    1.6952    2.9883   -0.6406 H   0  0  0  0  0  0
    2.8142    2.6792   -1.9549 H   0  0  0  0  0  0
   -1.2819    2.3515   -0.8149 H   0  0  0  0  0  0
   -1.7582    1.1698   -2.0266 H   0  0  0  0  0  0
    4.0541    4.0333   -0.3295 H   0  0  0  0  0  0
    2.9421    4.0127    1.0281 H   0  0  0  0  0  0
    4.9867    5.3469    1.5433 H   0  0  0  0  0  0
    4.8771    3.9646    2.6247 H   0  0  0  0  0  0
    6.0036    3.9385    1.2656 H   0  0  0  0  0  0
   -2.5794    2.6282    1.2849 H   0  0  0  0  0  0
   -3.8081   -0.1740   -1.7584 H   0  0  0  0  0  0
   -6.0473   -0.3299   -0.7069 H   0  0  0  0  0  0
    2.4554   -2.9379   -0.1158 N   0  3  0  0  0  0
    3.3817   -2.5376   -0.1607 H   0  0  0  0  0  0
  1 24  1  0  0  0
  2 26  1  0  0  0
  3 16  2  0  0  0
  4 17  2  0  0  0
  5  7  1  0  0  0
  5 12  1  0  0  0
  5 16  1  0  0  0
  6  9  1  0  0  0
  6 15  1  0  0  0
  6 17  1  0  0  0
  7  8  1  0  0  0
  7  9  1  0  0  0
  7 27  1  0  0  0
  8 28  1  0  0  0
  8 29  1  0  0  0
  8 54  1  0  0  0
  9 30  1  0  0  0
  9 31  1  0  0  0
 10 13  1  0  0  0
 10 32  1  0  0  0
 10 33  1  0  0  0
 10 54  1  0  0  0
 11 14  1  0  0  0
 11 34  1  0  0  0
 11 35  1  0  0  0
 11 54  1  0  0  0
 12 15  1  0  0  0
 12 36  1  0  0  0
 12 37  1  0  0  0
 13 14  1  0  0  0
 13 38  1  0  0  0
 13 39  1  0  0  0
 14 40  1  0  0  0
 14 41  1  0  0  0
 15 42  1  0  0  0
 15 43  1  0  0  0
 16 18  1  0  0  0
 17 19  1  0  0  0
 18 20  1  0  0  0
 18 44  1  0  0  0
 18 45  1  0  0  0
 19 21  1  0  0  0
 19 46  1  0  0  0
 19 47  1  0  0  0
 20 22  2  0  0  0
 20 23  1  0  0  0
 21 48  1  0  0  0
 21 49  1  0  0  0
 21 50  1  0  0  0
 22 24  1  0  0  0
 22 51  1  0  0  0
 23 25  2  0  0  0
 23 52  1  0  0  0
 24 26  2  0  0  0
 25 26  1  0  0  0
 25 53  1  0  0  0
 54 55  1  0  0  0
M  CHG  1  54   1
M  END
> <LID>
L003487

> <PC_CID>
15645957

> <Names>


> <CAS_Numbers>


$$$$
15645956
                    3D
 Structure written by MMmdl.
 52 54  0  0  1  0            999 V2000
    5.4140    1.7435    2.9083 Cl  0  0  0  0  0  0
    7.1640   -0.5798    1.6007 Cl  0  0  0  0  0  0
    0.8660   -0.6525    0.5906 O   0  0  0  0  0  0
   -3.9953    2.7033    1.8666 O   0  0  0  0  0  0
   -0.6154    0.5464   -0.6292 N   0  0  0  0  0  0
   -2.6629    2.2788    0.0756 N   0  0  0  0  0  0
   -1.7955   -0.0798    0.0064 C   0  0  2  0  0  0
   -2.0643   -1.4754   -0.6086 C   0  0  0  0  0  0
   -3.0326    0.8579   -0.0291 C   0  0  0  0  0  0
   -2.8431   -3.6917    0.2399 C   0  0  0  0  0  0
   -4.4857   -2.1129   -0.4215 C   0  0  0  0  0  0
   -4.2016   -4.4079    0.2085 C   0  0  0  0  0  0
   -5.2431   -3.2918    0.1793 C   0  0  0  0  0  0
   -0.9484    1.5821   -1.6173 C   0  0  0  0  0  0
   -1.6929    2.7428   -0.9305 C   0  0  0  0  0  0
    0.6470    0.2296   -0.2427 C   0  0  0  0  0  0
   -3.1967    3.0952    1.0157 C   0  0  0  0  0  0
    1.8354    0.9955   -0.8565 C   0  0  0  0  0  0
   -2.8032    4.5749    1.0237 C   0  0  0  0  0  0
    3.1698    0.6055   -0.2371 C   0  0  0  0  0  0
    3.6379    1.2703    0.9161 C   0  0  0  0  0  0
    3.9480   -0.4203   -0.8134 C   0  0  0  0  0  0
    4.8719    0.9118    1.4942 C   0  0  0  0  0  0
    5.1817   -0.7799   -0.2379 C   0  0  0  0  0  0
    5.6469   -0.1173    0.9151 C   0  0  0  0  0  0
   -1.5643   -0.2158    1.0651 H   0  0  0  0  0  0
   -2.3086   -1.3956   -1.6688 H   0  0  0  0  0  0
   -1.1361   -2.0466   -0.5634 H   0  0  0  0  0  0
   -3.7348    0.5521    0.7468 H   0  0  0  0  0  0
   -3.5659    0.7371   -0.9733 H   0  0  0  0  0  0
   -2.3023   -3.8869    1.1666 H   0  0  0  0  0  0
   -2.2269   -4.0517   -0.5857 H   0  0  0  0  0  0
   -4.4712   -2.2047   -1.5089 H   0  0  0  0  0  0
   -4.9537   -1.1624   -0.1697 H   0  0  0  0  0  0
   -4.2787   -5.0126   -0.6962 H   0  0  0  0  0  0
   -4.3406   -5.0732    1.0614 H   0  0  0  0  0  0
   -5.5545   -3.0502    1.1966 H   0  0  0  0  0  0
   -6.1345   -3.5576   -0.3898 H   0  0  0  0  0  0
   -1.5941    1.1290   -2.3712 H   0  0  0  0  0  0
   -0.0987    1.9671   -2.1786 H   0  0  0  0  0  0
   -2.1967    3.3587   -1.6766 H   0  0  0  0  0  0
   -0.9429    3.3730   -0.4506 H   0  0  0  0  0  0
    1.8740    0.8056   -1.9299 H   0  0  0  0  0  0
    1.6896    2.0679   -0.7201 H   0  0  0  0  0  0
   -3.4109    5.1278    1.7408 H   0  0  0  0  0  0
   -1.7586    4.6946    1.3116 H   0  0  0  0  0  0
   -2.9547    5.0275    0.0435 H   0  0  0  0  0  0
    3.0471    2.0564    1.3634 H   0  0  0  0  0  0
    3.5996   -0.9368   -1.6959 H   0  0  0  0  0  0
    5.7721   -1.5674   -0.6827 H   0  0  0  0  0  0
   -3.1141   -2.2393    0.1153 N   0  3  0  0  0  0
   -3.1414   -1.8895    1.0628 H   0  0  0  0  0  0
  1 23  1  0  0  0
  2 25  1  0  0  0
  3 16  2  0  0  0
  4 17  2  0  0  0
  5  7  1  0  0  0
  5 14  1  0  0  0
  5 16  1  0  0  0
  6  9  1  0  0  0
  6 15  1  0  0  0
  6 17  1  0  0  0
  7  8  1  0  0  0
  7  9  1  0  0  0
  7 26  1  0  0  0
  8 27  1  0  0  0
  8 28  1  0  0  0
  8 51  1  0  0  0
  9 29  1  0  0  0
  9 30  1  0  0  0
 10 12  1  0  0  0
 10 31  1  0  0  0
 10 32  1  0  0  0
 10 51  1  0  0  0
 11 13  1  0  0  0
 11 33  1  0  0  0
 11 34  1  0  0  0
 11 51  1  0  0  0
 12 13  1  0  0  0
 12 35  1  0  0  0
 12 36  1  0  0  0
 13 37  1  0  0  0
 13 38  1  0  0  0
 14 15  1  0  0  0
 14 39  1  0  0  0
 14 40  1  0  0  0
 15 41  1  0  0  0
 15 42  1  0  0  0
 16 18  1  0  0  0
 17 19  1  0  0  0
 18 20  1  0  0  0
 18 43  1  0  0  0
 18 44  1  0  0  0
 19 45  1  0  0  0
 19 46  1  0  0  0
 19 47  1  0  0  0
 20 21  2  0  0  0
 20 22  1  0  0  0
 21 23  1  0  0  0
 21 48  1  0  0  0
 22 24  2  0  0  0
 22 49  1  0  0  0
 23 25  2  0  0  0
 24 25  1  0  0  0
 24 50  1  0  0  0
 51 52  1  0  0  0
M  CHG  1  51   1
M  END
> <LID>
L003485

> <PC_CID>
15645956

> <Names>


> <CAS_Numbers>


$$$$
23190314
                    3D
 Structure written by MMmdl.
 55 57  0  0  1  0            999 V2000
   -4.2063   -3.8341   -1.0167 Cl  0  0  0  0  0  0
   -6.7132   -2.1891    0.0699 Cl  0  0  0  0  0  0
    3.2970   -3.7227   -2.2644 O   0  0  0  0  0  0
   -0.8927    0.0693    1.3336 O   0  0  0  0  0  0
    0.8131    0.9945    0.1565 N   0  0  0  0  0  0
    2.7349    2.0576    1.4593 C   0  0  0  0  0  0
    1.7673    0.8373    1.2912 C   0  0  2  0  0  0
    3.3749    2.4352    0.1098 C   0  0  0  0  0  0
    2.4036   -0.5833    1.3098 C   0  0  0  0  0  0
    2.3192    2.6888   -0.9653 C   0  0  0  0  0  0
    1.3550    1.5073   -1.1249 C   0  0  0  0  0  0
    1.9335    3.2622    2.0120 C   0  0  0  0  0  0
    3.8597    1.7768    2.4795 C   0  0  0  0  0  0
    2.4542   -1.9932   -0.7582 C   0  0  0  0  0  0
    4.5309   -1.3366    0.1972 C   0  0  0  0  0  0
    3.5415   -2.4384   -1.7311 C   0  0  1  0  0  0
    4.8040   -2.4092   -0.8691 C   0  0  0  0  0  0
   -0.4668    0.5463    0.2795 C   0  0  0  0  0  0
   -1.4143    0.6082   -0.9365 C   0  0  0  0  0  0
   -2.7399   -0.0972   -0.6871 C   0  0  0  0  0  0
   -2.8648   -1.4804   -0.9362 C   0  0  0  0  0  0
   -3.8516    0.6271   -0.2082 C   0  0  0  0  0  0
   -4.0889   -2.1387   -0.7050 C   0  0  0  0  0  0
   -5.0761   -0.0285    0.0230 C   0  0  0  0  0  0
   -5.1991   -1.4101   -0.2235 C   0  0  0  0  0  0
    1.1961    0.8599    2.2212 H   0  0  0  0  0  0
    3.9986    3.3232    0.2217 H   0  0  0  0  0  0
    4.0445    1.6450   -0.2269 H   0  0  0  0  0  0
    3.0563   -0.7005    2.1736 H   0  0  0  0  0  0
    1.6094   -1.3094    1.4894 H   0  0  0  0  0  0
    2.8093    2.8902   -1.9184 H   0  0  0  0  0  0
    1.7554    3.5920   -0.7321 H   0  0  0  0  0  0
    1.8604    0.6973   -1.6476 H   0  0  0  0  0  0
    0.5794    1.8492   -1.8077 H   0  0  0  0  0  0
    2.5444    4.1648    2.0509 H   0  0  0  0  0  0
    1.0521    3.4894    1.4128 H   0  0  0  0  0  0
    1.5796    3.0702    3.0256 H   0  0  0  0  0  0
    4.4483    2.6744    2.6735 H   0  0  0  0  0  0
    3.4573    1.4405    3.4358 H   0  0  0  0  0  0
    4.5576    1.0188    2.1245 H   0  0  0  0  0  0
    1.5571   -1.6312   -1.2611 H   0  0  0  0  0  0
    2.1678   -2.8287   -0.1162 H   0  0  0  0  0  0
    5.1680   -0.4630    0.0589 H   0  0  0  0  0  0
    4.7427   -1.7465    1.1857 H   0  0  0  0  0  0
    3.6314   -1.7151   -2.5431 H   0  0  0  0  0  0
    4.9505   -3.3728   -0.3780 H   0  0  0  0  0  0
    5.6996   -2.2009   -1.4554 H   0  0  0  0  0  0
   -1.6097    1.6506   -1.1912 H   0  0  0  0  0  0
   -0.9390    0.1429   -1.8010 H   0  0  0  0  0  0
    2.5276   -3.6872   -2.8127 H   0  0  0  0  0  0
   -2.0177   -2.0420   -1.3023 H   0  0  0  0  0  0
   -3.7675    1.6862   -0.0127 H   0  0  0  0  0  0
   -5.9231    0.5313    0.3917 H   0  0  0  0  0  0
    3.1074   -0.9453    0.0531 N   0  3  2  0  0  0
    3.1131   -0.1145   -0.5214 H   0  0  0  0  0  0
  1 23  1  0  0  0
  2 25  1  0  0  0
  3 16  1  0  0  0
  3 50  1  0  0  0
  4 18  2  0  0  0
  5  7  1  0  0  0
  5 11  1  0  0  0
  5 18  1  0  0  0
  6  7  1  0  0  0
  6  8  1  0  0  0
  6 12  1  0  0  0
  6 13  1  0  0  0
  7  9  1  0  0  0
  7 26  1  0  0  0
  8 10  1  0  0  0
  8 27  1  0  0  0
  8 28  1  0  0  0
  9 29  1  0  0  0
  9 30  1  0  0  0
  9 54  1  0  0  0
 10 11  1  0  0  0
 10 31  1  0  0  0
 10 32  1  0  0  0
 11 33  1  0  0  0
 11 34  1  0  0  0
 12 35  1  0  0  0
 12 36  1  0  0  0
 12 37  1  0  0  0
 13 38  1  0  0  0
 13 39  1  0  0  0
 13 40  1  0  0  0
 14 16  1  0  0  0
 14 41  1  0  0  0
 14 42  1  0  0  0
 14 54  1  0  0  0
 15 17  1  0  0  0
 15 43  1  0  0  0
 15 44  1  0  0  0
 15 54  1  0  0  0
 16 17  1  0  0  0
 16 45  1  0  0  0
 17 46  1  0  0  0
 17 47  1  0  0  0
 18 19  1  0  0  0
 19 20  1  0  0  0
 19 48  1  0  0  0
 19 49  1  0  0  0
 20 21  2  0  0  0
 20 22  1  0  0  0
 21 23  1  0  0  0
 21 51  1  0  0  0
 22 24  2  0  0  0
 22 52  1  0  0  0
 23 25  2  0  0  0
 24 25  1  0  0  0
 24 53  1  0  0  0
 54 55  1  0  0  0
M  CHG  1  54   1
M  END
> <LID>
L005486

> <PC_CID>
23190314

> <Names>


> <CAS_Numbers>


$$$$
14810960
                    3D
 Structure written by MMmdl.
 51 53  0  0  1  0            999 V2000
    6.6603    0.3912   -1.5557 F   0  0  0  0  0  0
    6.7444   -0.6542    0.3332 F   0  0  0  0  0  0
    5.8151   -1.5971   -1.3829 F   0  0  0  0  0  0
   -0.1637   -0.1552   -0.3520 O   0  0  0  0  0  0
   -1.6976    1.2597    0.5683 N   0  0  0  0  0  0
   -2.9493    0.5598    0.1696 C   0  0  2  0  0  0
   -2.8433   -0.9624   -0.1189 C   0  0  0  0  0  0
   -3.5776    1.3418   -1.0072 C   0  0  0  0  0  0
   -3.8576    2.8032   -0.6157 C   0  0  0  0  0  0
   -2.0178    2.5915    1.1187 C   0  0  0  0  0  0
   -4.9838   -1.7047    0.9562 C   0  0  0  0  0  0
   -4.1148   -2.9570   -0.8792 C   0  0  0  0  0  0
   -2.6209    3.4698    0.0078 C   0  0  0  0  0  0
   -5.6173   -3.1027    0.9663 C   0  0  0  0  0  0
   -5.4146   -3.6293   -0.4508 C   0  0  0  0  0  0
   -0.4241    0.8782    0.2640 C   0  0  0  0  0  0
    0.7518    1.7725    0.7105 C   0  0  0  0  0  0
    2.1112    1.2004    0.3326 C   0  0  0  0  0  0
    2.7913    0.3397    1.2194 C   0  0  0  0  0  0
    2.7004    1.5288   -0.9063 C   0  0  0  0  0  0
    4.0487   -0.1891    0.8692 C   0  0  0  0  0  0
    3.9579    0.9994   -1.2555 C   0  0  0  0  0  0
    4.6429    0.1411   -0.3682 C   0  0  0  0  0  0
    5.9969   -0.4388   -0.7500 C   0  0  0  0  0  0
   -3.6254    0.6507    1.0208 H   0  0  0  0  0  0
   -2.3019   -1.1214   -1.0521 H   0  0  0  0  0  0
   -2.2895   -1.4728    0.6709 H   0  0  0  0  0  0
   -2.9060    1.3134   -1.8665 H   0  0  0  0  0  0
   -4.5100    0.8786   -1.3301 H   0  0  0  0  0  0
   -4.1945    3.3699   -1.4842 H   0  0  0  0  0  0
   -4.6765    2.8285    0.1044 H   0  0  0  0  0  0
   -1.1780    3.1087    1.5781 H   0  0  0  0  0  0
   -2.7392    2.4820    1.9298 H   0  0  0  0  0  0
   -5.7475   -0.9265    0.9351 H   0  0  0  0  0  0
   -4.3850   -1.5551    1.8560 H   0  0  0  0  0  0
   -3.2656   -3.5089   -0.4720 H   0  0  0  0  0  0
   -4.0016   -2.9131   -1.9629 H   0  0  0  0  0  0
   -2.8874    4.4494    0.4058 H   0  0  0  0  0  0
   -1.8708    3.6440   -0.7648 H   0  0  0  0  0  0
   -5.0842   -3.7411    1.6723 H   0  0  0  0  0  0
   -6.6670   -3.0875    1.2616 H   0  0  0  0  0  0
   -5.3658   -4.7177   -0.4973 H   0  0  0  0  0  0
   -6.2338   -3.2999   -1.0917 H   0  0  0  0  0  0
    0.6535    2.7598    0.2570 H   0  0  0  0  0  0
    0.7200    1.9038    1.7928 H   0  0  0  0  0  0
    2.3480    0.0783    2.1693 H   0  0  0  0  0  0
    2.1870    2.1837   -1.5950 H   0  0  0  0  0  0
    4.5547   -0.8525    1.5551 H   0  0  0  0  0  0
    4.3935    1.2537   -2.2105 H   0  0  0  0  0  0
   -4.1687   -1.6082   -0.2799 N   0  3  0  0  0  0
   -4.7004   -1.0431   -0.9265 H   0  0  0  0  0  0
  1 24  1  0  0  0
  2 24  1  0  0  0
  3 24  1  0  0  0
  4 16  2  0  0  0
  5  6  1  0  0  0
  5 10  1  0  0  0
  5 16  1  0  0  0
  6  7  1  0  0  0
  6  8  1  0  0  0
  6 25  1  0  0  0
  7 26  1  0  0  0
  7 27  1  0  0  0
  7 50  1  0  0  0
  8  9  1  0  0  0
  8 28  1  0  0  0
  8 29  1  0  0  0
  9 13  1  0  0  0
  9 30  1  0  0  0
  9 31  1  0  0  0
 10 13  1  0  0  0
 10 32  1  0  0  0
 10 33  1  0  0  0
 11 14  1  0  0  0
 11 34  1  0  0  0
 11 35  1  0  0  0
 11 50  1  0  0  0
 12 15  1  0  0  0
 12 36  1  0  0  0
 12 37  1  0  0  0
 12 50  1  0  0  0
 13 38  1  0  0  0
 13 39  1  0  0  0
 14 15  1  0  0  0
 14 40  1  0  0  0
 14 41  1  0  0  0
 15 42  1  0  0  0
 15 43  1  0  0  0
 16 17  1  0  0  0
 17 18  1  0  0  0
 17 44  1  0  0  0
 17 45  1  0  0  0
 18 19  2  0  0  0
 18 20  1  0  0  0
 19 21  1  0  0  0
 19 46  1  0  0  0
 20 22  2  0  0  0
 20 47  1  0  0  0
 21 23  2  0  0  0
 21 48  1  0  0  0
 22 23  1  0  0  0
 22 49  1  0  0  0
 23 24  1  0  0  0
 50 51  1  0  0  0
M  CHG  1  50   1
M  END
> <LID>
L023786

> <PC_CID>
14810960

> <Names>


> <CAS_Numbers>


$$$$
44211119
                    3D
 Structure written by MMmdl.
 58 61  0  0  1  0            999 V2000
   -0.1210   -2.1861   -0.9489 O   0  0  0  0  0  0
   -0.0678    0.6348    1.7337 O   0  0  0  0  0  0
    4.5731   -1.9641    0.5934 O   0  0  0  0  0  0
   -0.5885    0.5658   -0.4750 N   0  0  0  0  0  0
   -2.8241   -0.0394    0.6039 C   0  0  2  0  0  0
   -1.6654   -0.4487   -0.3489 C   0  0  2  0  0  0
   -3.9485   -1.1005    0.5600 C   0  0  0  0  0  0
   -1.1052   -1.8455    0.0212 C   0  0  1  0  0  0
   -3.3981   -2.4849    0.9381 C   0  0  0  0  0  0
   -2.2354   -2.8971    0.0198 C   0  0  0  0  0  0
   -4.0118    1.9998    1.4829 C   0  0  0  0  0  0
   -4.0404    1.6321   -0.8813 C   0  0  0  0  0  0
   -5.0845    2.8990    0.8520 C   0  0  0  0  0  0
   -4.7059    2.9800   -0.6253 C   0  0  0  0  0  0
   -0.3519    1.0416   -1.8450 C   0  0  0  0  0  0
    0.1936    0.9439    0.5717 C   0  0  0  0  0  0
    1.4833    1.7507    0.3330 C   0  0  0  0  0  0
    0.8098   -3.1678   -0.5210 C   0  0  0  0  0  0
    2.5744    0.8958   -0.3000 C   0  0  0  0  0  0
    3.1412   -0.1895    0.4196 C   0  0  0  0  0  0
    3.0306    1.1987   -1.6049 C   0  0  0  0  0  0
    4.1426   -0.9508   -0.2378 C   0  0  0  0  0  0
    2.9844   -0.7882    1.7170 C   0  0  0  0  0  0
    4.0295    0.4195   -2.2238 C   0  0  0  0  0  0
    4.5921   -0.6717   -1.5380 C   0  0  0  0  0  0
    3.8651   -1.8416    1.7578 C   0  0  0  0  0  0
   -2.4403   -0.0477    1.6240 H   0  0  0  0  0  0
   -2.1230   -0.5765   -1.3307 H   0  0  0  0  0  0
   -4.3841   -1.1671   -0.4367 H   0  0  0  0  0  0
   -4.7599   -0.8368    1.2384 H   0  0  0  0  0  0
   -0.6545   -1.8062    1.0142 H   0  0  0  0  0  0
   -3.0595   -2.4754    1.9750 H   0  0  0  0  0  0
   -4.1943   -3.2278    0.8814 H   0  0  0  0  0  0
   -1.8555   -3.8674    0.3385 H   0  0  0  0  0  0
   -2.6075   -3.0322   -0.9966 H   0  0  0  0  0  0
   -3.3015    2.5834    2.0695 H   0  0  0  0  0  0
   -4.4708    1.2731    2.1537 H   0  0  0  0  0  0
   -4.8179    0.8879   -1.0477 H   0  0  0  0  0  0
   -3.3939    1.6486   -1.7581 H   0  0  0  0  0  0
   -5.1416    3.8805    1.3237 H   0  0  0  0  0  0
   -6.0626    2.4264    0.9524 H   0  0  0  0  0  0
   -5.5632    3.1609   -1.2744 H   0  0  0  0  0  0
   -3.9875    3.7860   -0.7822 H   0  0  0  0  0  0
   -1.2353    0.9646   -2.4779 H   0  0  0  0  0  0
    0.4314    0.4483   -2.3167 H   0  0  0  0  0  0
   -0.0632    2.0913   -1.8792 H   0  0  0  0  0  0
    1.2865    2.6458   -0.2558 H   0  0  0  0  0  0
    1.8555    2.1126    1.2926 H   0  0  0  0  0  0
    1.5569   -3.3217   -1.2994 H   0  0  0  0  0  0
    1.3322   -2.8508    0.3817 H   0  0  0  0  0  0
    0.3283   -4.1261   -0.3278 H   0  0  0  0  0  0
    2.6062    2.0323   -2.1454 H   0  0  0  0  0  0
    2.3066   -0.4695    2.4949 H   0  0  0  0  0  0
    4.3614    0.6598   -3.2234 H   0  0  0  0  0  0
    5.3574   -1.2795   -1.9974 H   0  0  0  0  0  0
    4.0966   -2.5734    2.5179 H   0  0  0  0  0  0
   -3.2869    1.3567    0.3614 N   0  3  0  0  0  0
   -2.4413    1.9024    0.2746 H   0  0  0  0  0  0
  1  8  1  0  0  0
  1 18  1  0  0  0
  2 16  2  0  0  0
  3 22  1  0  0  0
  3 26  1  0  0  0
  4  6  1  0  0  0
  4 15  1  0  0  0
  4 16  1  0  0  0
  5  6  1  0  0  0
  5  7  1  0  0  0
  5 27  1  0  0  0
  5 57  1  0  0  0
  6  8  1  0  0  0
  6 28  1  0  0  0
  7  9  1  0  0  0
  7 29  1  0  0  0
  7 30  1  0  0  0
  8 10  1  0  0  0
  8 31  1  0  0  0
  9 10  1  0  0  0
  9 32  1  0  0  0
  9 33  1  0  0  0
 10 34  1  0  0  0
 10 35  1  0  0  0
 11 13  1  0  0  0
 11 36  1  0  0  0
 11 37  1  0  0  0
 11 57  1  0  0  0
 12 14  1  0  0  0
 12 38  1  0  0  0
 12 39  1  0  0  0
 12 57  1  0  0  0
 13 14  1  0  0  0
 13 40  1  0  0  0
 13 41  1  0  0  0
 14 42  1  0  0  0
 14 43  1  0  0  0
 15 44  1  0  0  0
 15 45  1  0  0  0
 15 46  1  0  0  0
 16 17  1  0  0  0
 17 19  1  0  0  0
 17 47  1  0  0  0
 17 48  1  0  0  0
 18 49  1  0  0  0
 18 50  1  0  0  0
 18 51  1  0  0  0
 19 20  2  0  0  0
 19 21  1  0  0  0
 20 22  1  0  0  0
 20 23  1  0  0  0
 21 24  2  0  0  0
 21 52  1  0  0  0
 22 25  2  0  0  0
 23 26  2  0  0  0
 23 53  1  0  0  0
 24 25  1  0  0  0
 24 54  1  0  0  0
 25 55  1  0  0  0
 26 56  1  0  0  0
 57 58  1  0  0  0
M  CHG  1  57   1
M  END
> <LID>
L009086

> <PC_CID>
44211119

> <Names>


> <CAS_Numbers>


$$$$
115208
                    3D
 Structure written by MMmdl.
 48 51  0  0  1  0            999 V2000
    5.0511    0.7887    4.0813 S   0  0  0  0  0  0
   -2.5901    1.8583   -1.2338 F   0  0  0  0  0  0
    4.3976   -0.2163   -0.7116 O   0  0  0  0  0  0
    0.2356   -1.0874   -2.2070 N   0  0  0  0  0  0
   -0.4567   -0.6615    0.8288 N   0  0  0  0  0  0
    2.5414    0.6408    0.2610 N   0  0  0  0  0  0
    1.1147   -0.9553   -1.0398 C   0  0  2  0  0  0
    0.5040   -1.5645    0.2427 C   0  0  0  0  0  0
    1.6323    0.5008   -0.8710 C   0  0  0  0  0  0
   -1.1126   -1.3310   -2.1788 C   0  0  0  0  0  0
   -1.9643   -1.0355   -1.0613 C   0  0  0  0  0  0
   -1.5372   -0.3812    0.2174 C   0  0  0  0  0  0
    0.9927   -1.0968   -3.4614 C   0  0  0  0  0  0
   -1.7077   -1.9292   -3.3242 C   0  0  0  0  0  0
   -3.3396   -1.3722   -1.1373 C   0  0  0  0  0  0
   -2.4091    0.6468    0.8419 C   0  0  0  0  0  0
   -3.0757   -2.2409   -3.3798 C   0  0  0  0  0  0
   -3.8957   -1.9656   -2.2801 C   0  0  0  0  0  0
    3.8271    0.2562    0.2714 C   0  0  0  0  0  0
   -2.9058    1.7300    0.0783 C   0  0  0  0  0  0
   -2.7384    0.5524    2.2136 C   0  0  0  0  0  0
    4.5358    0.4995    1.5585 C   0  0  0  0  0  0
   -3.7318    2.6976    0.6835 C   0  0  0  0  0  0
   -3.5642    1.5229    2.8133 C   0  0  0  0  0  0
   -4.0623    2.5945    2.0482 C   0  0  0  0  0  0
    5.9452    0.7124    1.6593 C   0  0  0  0  0  0
    3.9197    0.4978    2.7879 C   0  0  0  0  0  0
    6.3707    0.8926    2.9493 C   0  0  0  0  0  0
    1.9842   -1.5779   -1.2577 H   0  0  0  0  0  0
    0.0714   -2.5498    0.0569 H   0  0  0  0  0  0
    1.2985   -1.7361    0.9694 H   0  0  0  0  0  0
    2.1382    0.8469   -1.7728 H   0  0  0  0  0  0
    0.8000    1.1891   -0.7230 H   0  0  0  0  0  0
    0.4958   -0.4850   -4.2152 H   0  0  0  0  0  0
    2.0043   -0.7075   -3.3463 H   0  0  0  0  0  0
    1.0842   -2.1142   -3.8429 H   0  0  0  0  0  0
   -1.1260   -2.1837   -4.1965 H   0  0  0  0  0  0
    2.1605    1.0443    1.1040 H   0  0  0  0  0  0
   -3.9988   -1.1742   -0.3041 H   0  0  0  0  0  0
   -3.4918   -2.6990   -4.2650 H   0  0  0  0  0  0
   -4.9479   -2.2078   -2.3110 H   0  0  0  0  0  0
   -2.3642   -0.2663    2.8116 H   0  0  0  0  0  0
   -4.1101    3.5230    0.0986 H   0  0  0  0  0  0
   -3.8156    1.4447    3.8609 H   0  0  0  0  0  0
   -4.6953    3.3388    2.5086 H   0  0  0  0  0  0
    6.5907    0.7292    0.7930 H   0  0  0  0  0  0
    2.8760    0.3403    3.0184 H   0  0  0  0  0  0
    7.3751    1.0747    3.3024 H   0  0  0  0  0  0
  1 27  1  0  0  0
  1 28  1  0  0  0
  2 20  1  0  0  0
  3 19  2  0  0  0
  4  7  1  0  0  0
  4 10  1  0  0  0
  4 13  1  0  0  0
  5  8  1  0  0  0
  5 12  2  0  0  0
  6  9  1  0  0  0
  6 19  1  0  0  0
  6 38  1  0  0  0
  7  8  1  0  0  0
  7  9  1  0  0  0
  7 29  1  0  0  0
  8 30  1  0  0  0
  8 31  1  0  0  0
  9 32  1  0  0  0
  9 33  1  0  0  0
 10 11  1  0  0  0
 10 14  2  0  0  0
 11 12  1  0  0  0
 11 15  2  0  0  0
 12 16  1  0  0  0
 13 34  1  0  0  0
 13 35  1  0  0  0
 13 36  1  0  0  0
 14 17  1  0  0  0
 14 37  1  0  0  0
 15 18  1  0  0  0
 15 39  1  0  0  0
 16 20  1  0  0  0
 16 21  2  0  0  0
 17 18  2  0  0  0
 17 40  1  0  0  0
 18 41  1  0  0  0
 19 22  1  0  0  0
 20 23  2  0  0  0
 21 24  1  0  0  0
 21 42  1  0  0  0
 22 26  1  0  0  0
 22 27  2  0  0  0
 23 25  1  0  0  0
 23 43  1  0  0  0
 24 25  2  0  0  0
 24 44  1  0  0  0
 25 45  1  0  0  0
 26 28  2  0  0  0
 26 46  1  0  0  0
 27 47  1  0  0  0
 28 48  1  0  0  0
M  END
> <LID>
L024032

> <PC_CID>
115208

> <Names>
tifluadom

> <CAS_Numbers>
83386-35-0

$$$$
44214012
                    3D
 Structure written by MMmdl.
 69 71  0  0  1  0            999 V2000
   -0.6668   -3.9395   -0.9616 Cl  0  0  0  0  0  0
   -3.4812   -5.2123   -1.7615 Cl  0  0  0  0  0  0
   -1.3751    0.6355    2.3624 O   0  0  0  0  0  0
    3.5280   -0.0844   -2.5304 O   0  0  0  0  0  0
    6.4585   -1.7630    1.9595 O   0  0  0  0  0  0
   -3.1105    1.0562    0.9564 N   0  0  0  0  0  0
    2.3653    0.4559   -0.6428 N   0  0  0  0  0  0
   -2.1127    4.7839   -1.2508 C   0  0  0  0  0  0
   -0.4394    5.2393    0.3884 C   0  0  0  0  0  0
   -1.6855    6.2530   -1.3748 C   0  0  0  0  0  0
   -0.3296    6.3226   -0.6789 C   0  0  0  0  0  0
   -1.8726    3.2327    0.7066 C   0  0  0  0  0  0
   -2.3640    1.9285    0.0253 C   0  0  1  0  0  0
   -1.2986    1.1415   -0.7470 C   0  0  0  0  0  0
    0.0683    1.1631   -0.3837 C   0  0  0  0  0  0
   -2.5024    0.3598    1.9519 C   0  0  0  0  0  0
   -4.5435    0.9280    0.6651 C   0  0  0  0  0  0
   -1.7075    0.3248   -1.8227 C   0  0  0  0  0  0
    1.0181    0.3971   -1.0908 C   0  0  0  0  0  0
   -3.1735   -0.9035    2.5170 C   0  0  0  0  0  0
   -0.7701   -0.4537   -2.5250 C   0  0  0  0  0  0
    0.5884   -0.4228   -2.1609 C   0  0  0  0  0  0
   -3.2380   -2.0011    1.4615 C   0  0  0  0  0  0
    3.4923    0.2070   -1.3351 C   0  0  0  0  0  0
    4.7995    0.3468   -0.5501 C   0  0  0  0  0  0
    5.7787   -0.8169   -0.8150 C   0  0  0  0  0  0
   -2.0614   -2.4510    0.8210 C   0  0  0  0  0  0
   -4.4786   -2.5718    1.1081 C   0  0  0  0  0  0
    7.1266   -0.6878   -0.0682 C   0  0  1  0  0  0
   -2.1242   -3.4392   -0.1802 C   0  0  0  0  0  0
   -4.5433   -3.5665    0.1135 C   0  0  0  0  0  0
   -3.3704   -3.9997   -0.5358 C   0  0  0  0  0  0
    6.9496   -0.7271    1.4569 C   0  0  0  0  0  0
   -3.1622    4.7194   -0.9593 H   0  0  0  0  0  0
   -2.0008    4.2588   -2.2001 H   0  0  0  0  0  0
    0.5339    4.8882    0.7331 H   0  0  0  0  0  0
   -0.9852    5.6272    1.2505 H   0  0  0  0  0  0
   -2.3993    6.8875   -0.8475 H   0  0  0  0  0  0
   -1.6427    6.5931   -2.4100 H   0  0  0  0  0  0
    0.4643    6.0719   -1.3840 H   0  0  0  0  0  0
   -0.1144    7.3079   -0.2641 H   0  0  0  0  0  0
   -1.1627    3.0080    1.5020 H   0  0  0  0  0  0
   -2.7078    3.7437    1.1883 H   0  0  0  0  0  0
   -3.0591    2.2496   -0.7515 H   0  0  0  0  0  0
    0.4003    1.7581    0.4537 H   0  0  0  0  0  0
   -4.7155    0.1161   -0.0419 H   0  0  0  0  0  0
   -5.1379    0.7411    1.5590 H   0  0  0  0  0  0
   -4.9502    1.8408    0.2286 H   0  0  0  0  0  0
   -2.7497    0.2790   -2.1036 H   0  0  0  0  0  0
   -2.5858   -1.2756    3.3573 H   0  0  0  0  0  0
   -4.1601   -0.6791    2.9209 H   0  0  0  0  0  0
   -1.0953   -1.0868   -3.3374 H   0  0  0  0  0  0
    1.2788   -1.0514   -2.7020 H   0  0  0  0  0  0
    2.4941    0.7754    0.3062 H   0  0  0  0  0  0
    5.2644    1.2930   -0.8290 H   0  0  0  0  0  0
    4.5736    0.4144    0.5150 H   0  0  0  0  0  0
    5.2971   -1.7622   -0.5574 H   0  0  0  0  0  0
    5.9838   -0.8724   -1.8852 H   0  0  0  0  0  0
   -1.1036   -2.0253    1.0842 H   0  0  0  0  0  0
   -5.3871   -2.2423    1.5909 H   0  0  0  0  0  0
    7.6052    0.2493   -0.3585 H   0  0  0  0  0  0
   -5.4978   -3.9945   -0.1556 H   0  0  0  0  0  0
    8.9197   -1.6537    0.0287 H   0  0  0  0  0  0
    7.6286   -2.6582   -0.1612 H   0  0  0  0  0  0
    7.3222    0.2792    2.0979 O   0  5  0  0  0  0
   -1.2156    4.1575   -0.2493 N   0  3  0  0  0  0
   -0.5457    3.6126   -0.7744 H   0  0  0  0  0  0
    8.0382   -1.7804   -0.4474 N   0  3  0  0  0  0
    8.1832   -1.7766   -1.4464 H   0  0  0  0  0  0
  1 30  1  0  0  0
  2 32  1  0  0  0
  3 16  2  0  0  0
  4 24  2  0  0  0
  5 33  2  0  0  0
  6 13  1  0  0  0
  6 16  1  0  0  0
  6 17  1  0  0  0
  7 19  1  0  0  0
  7 24  1  0  0  0
  7 54  1  0  0  0
  8 10  1  0  0  0
  8 34  1  0  0  0
  8 35  1  0  0  0
  8 66  1  0  0  0
  9 11  1  0  0  0
  9 36  1  0  0  0
  9 37  1  0  0  0
  9 66  1  0  0  0
 10 11  1  0  0  0
 10 38  1  0  0  0
 10 39  1  0  0  0
 11 40  1  0  0  0
 11 41  1  0  0  0
 12 13  1  0  0  0
 12 42  1  0  0  0
 12 43  1  0  0  0
 12 66  1  0  0  0
 13 14  1  0  0  0
 13 44  1  0  0  0
 14 15  2  0  0  0
 14 18  1  0  0  0
 15 19  1  0  0  0
 15 45  1  0  0  0
 16 20  1  0  0  0
 17 46  1  0  0  0
 17 47  1  0  0  0
 17 48  1  0  0  0
 18 21  2  0  0  0
 18 49  1  0  0  0
 19 22  2  0  0  0
 20 23  1  0  0  0
 20 50  1  0  0  0
 20 51  1  0  0  0
 21 22  1  0  0  0
 21 52  1  0  0  0
 22 53  1  0  0  0
 23 27  2  0  0  0
 23 28  1  0  0  0
 24 25  1  0  0  0
 25 26  1  0  0  0
 25 55  1  0  0  0
 25 56  1  0  0  0
 26 29  1  0  0  0
 26 57  1  0  0  0
 26 58  1  0  0  0
 27 30  1  0  0  0
 27 59  1  0  0  0
 28 31  2  0  0  0
 28 60  1  0  0  0
 29 33  1  0  0  0
 29 61  1  0  0  0
 29 68  1  0  0  0
 30 32  2  0  0  0
 31 32  1  0  0  0
 31 62  1  0  0  0
 33 65  1  0  0  0
 63 68  1  0  0  0
 64 68  1  0  0  0
 66 67  1  0  0  0
 68 69  1  0  0  0
M  CHG  3  65  -1  66   1  68   1
M  END
> <LID>
L016572

> <PC_CID>
44214012

> <Names>


> <CAS_Numbers>


$$$$
10070066
                    3D
 Structure written by MMmdl.
 50 53  0  0  1  0            999 V2000
   -4.8926    3.1897    0.3599 Cl  0  0  0  0  0  0
   -6.6435    1.3797   -1.5971 Cl  0  0  0  0  0  0
    1.0977    4.2920    1.1460 O   0  0  0  0  0  0
    3.5366   -4.1207   -0.0065 O   0  0  0  0  0  0
   -0.4200    0.1577   -1.0394 O   0  0  0  0  0  0
    0.9326   -0.9443    0.4039 N   0  0  0  0  0  0
    2.1530   -0.7286   -0.4305 C   0  0  1  0  0  0
    3.0258    0.4257    0.1123 C   0  0  0  0  0  0
    2.8855    2.6879    1.1354 C   0  0  0  0  0  0
    2.0924    2.4089   -1.1030 C   0  0  0  0  0  0
    2.4026    4.0549    0.6554 C   0  0  1  0  0  0
    2.3824    3.8969   -0.8637 C   0  0  0  0  0  0
    2.9493   -2.0064   -0.5332 C   0  0  0  0  0  0
    1.1375   -1.7504    1.6396 C   0  0  0  0  0  0
    1.7022   -3.1629    1.3465 C   0  0  0  0  0  0
    2.7211   -3.0723    0.2739 C   0  0  0  0  0  0
   -0.2839   -0.4991   -0.0058 C   0  0  0  0  0  0
    4.0153   -2.4035   -1.3885 C   0  0  0  0  0  0
    4.3296   -3.6875   -1.0291 C   0  0  0  0  0  0
   -1.5300   -0.8095    0.8472 C   0  0  0  0  0  0
   -2.8114   -0.2567    0.2396 C   0  0  0  0  0  0
   -3.2293    1.0573    0.5393 C   0  0  0  0  0  0
   -3.5893   -1.0544   -0.6255 C   0  0  0  0  0  0
   -4.4126    1.5749   -0.0238 C   0  0  0  0  0  0
   -4.7729   -0.5397   -1.1884 C   0  0  0  0  0  0
   -5.1877    0.7734   -0.8909 C   0  0  0  0  0  0
    1.8827   -0.4945   -1.4613 H   0  0  0  0  0  0
    3.3786    0.1618    1.1103 H   0  0  0  0  0  0
    3.9220    0.5517   -0.4974 H   0  0  0  0  0  0
    2.6117    2.4723    2.1691 H   0  0  0  0  0  0
    3.9739    2.6468    1.0634 H   0  0  0  0  0  0
    1.0600    2.2695   -1.4216 H   0  0  0  0  0  0
    2.7345    2.0143   -1.8918 H   0  0  0  0  0  0
    3.0588    4.8628    0.9814 H   0  0  0  0  0  0
    3.3697    4.1360   -1.2614 H   0  0  0  0  0  0
    1.6658    4.5547   -1.3574 H   0  0  0  0  0  0
    0.2646   -1.8401    2.2831 H   0  0  0  0  0  0
    1.8656   -1.2112    2.2460 H   0  0  0  0  0  0
    0.8971   -3.8218    1.0202 H   0  0  0  0  0  0
    2.1293   -3.6021    2.2484 H   0  0  0  0  0  0
    4.4879   -1.8289   -2.1714 H   0  0  0  0  0  0
    0.8101    5.1420    0.8471 H   0  0  0  0  0  0
    5.0544   -4.4065   -1.3819 H   0  0  0  0  0  0
   -1.6329   -1.8891    0.9649 H   0  0  0  0  0  0
   -1.4067   -0.3815    1.8428 H   0  0  0  0  0  0
   -2.6382    1.6748    1.1999 H   0  0  0  0  0  0
   -3.2788   -2.0615   -0.8630 H   0  0  0  0  0  0
   -5.3632   -1.1549   -1.8516 H   0  0  0  0  0  0
    2.2969    1.7147    0.1926 N   0  3  1  0  0  0
    1.3732    1.5207    0.5531 H   0  0  0  0  0  0
  1 24  1  0  0  0
  2 26  1  0  0  0
  3 11  1  0  0  0
  3 42  1  0  0  0
  4 16  1  0  0  0
  4 19  1  0  0  0
  5 17  2  0  0  0
  6  7  1  0  0  0
  6 14  1  0  0  0
  6 17  1  0  0  0
  7  8  1  0  0  0
  7 13  1  0  0  0
  7 27  1  0  0  0
  8 28  1  0  0  0
  8 29  1  0  0  0
  8 49  1  0  0  0
  9 11  1  0  0  0
  9 30  1  0  0  0
  9 31  1  0  0  0
  9 49  1  0  0  0
 10 12  1  0  0  0
 10 32  1  0  0  0
 10 33  1  0  0  0
 10 49  1  0  0  0
 11 12  1  0  0  0
 11 34  1  0  0  0
 12 35  1  0  0  0
 12 36  1  0  0  0
 13 16  2  0  0  0
 13 18  1  0  0  0
 14 15  1  0  0  0
 14 37  1  0  0  0
 14 38  1  0  0  0
 15 16  1  0  0  0
 15 39  1  0  0  0
 15 40  1  0  0  0
 17 20  1  0  0  0
 18 19  2  0  0  0
 18 41  1  0  0  0
 19 43  1  0  0  0
 20 21  1  0  0  0
 20 44  1  0  0  0
 20 45  1  0  0  0
 21 22  2  0  0  0
 21 23  1  0  0  0
 22 24  1  0  0  0
 22 46  1  0  0  0
 23 25  2  0  0  0
 23 47  1  0  0  0
 24 26  2  0  0  0
 25 26  1  0  0  0
 25 48  1  0  0  0
 49 50  1  0  0  0
M  CHG  1  49   1
M  END
> <LID>
L003817

> <PC_CID>
10070066

> <Names>


> <CAS_Numbers>


$$$$
9873061
                    3D
 Structure written by MMmdl.
 50 52  0  0  1  0            999 V2000
    7.0346    0.1989    1.2324 Cl  0  0  0  0  0  0
    7.0113   -2.8230    0.2140 Cl  0  0  0  0  0  0
   -6.3481    2.9737    1.0918 O   0  0  0  0  0  0
    0.0291    2.0976   -1.7254 O   0  0  0  0  0  0
    1.4582    0.3778    0.8517 O   0  0  0  0  0  0
    0.0301    1.0415   -0.7805 N   0  0  0  0  0  0
   -4.1383    2.1679    0.3876 C   0  0  0  0  0  0
   -5.5845    2.5071   -0.0008 C   0  0  1  0  0  0
   -4.9071    0.6085   -1.2558 C   0  0  0  0  0  0
   -6.1343    1.2045   -0.5729 C   0  0  0  0  0  0
   -2.4581    0.9977   -1.0593 C   0  0  0  0  0  0
   -1.2629    0.9744   -0.0666 C   0  0  1  0  0  0
   -1.3955   -0.2531    0.8388 C   0  0  0  0  0  0
    1.2680    0.7901   -0.2928 C   0  0  0  0  0  0
   -1.1887   -1.5536    0.3253 C   0  0  0  0  0  0
   -1.7452   -0.0932    2.1976 C   0  0  0  0  0  0
    2.4686    0.9360   -1.2488 C   0  0  0  0  0  0
   -1.3262   -2.6781    1.1615 C   0  0  0  0  0  0
   -1.8834   -1.2185    3.0328 C   0  0  0  0  0  0
   -1.6740   -2.5109    2.5153 C   0  0  0  0  0  0
    3.6106    0.0010   -0.8798 C   0  0  0  0  0  0
    4.6820    0.4649   -0.0875 C   0  0  0  0  0  0
    3.6051   -1.3360   -1.3294 C   0  0  0  0  0  0
    5.7396   -0.3999    0.2580 C   0  0  0  0  0  0
    4.6609   -2.2019   -0.9860 C   0  0  0  0  0  0
    5.7292   -1.7385   -0.1929 C   0  0  0  0  0  0
   -4.0534    1.9408    1.4512 H   0  0  0  0  0  0
   -3.4759    3.0092    0.1784 H   0  0  0  0  0  0
   -5.5793    3.2689   -0.7821 H   0  0  0  0  0  0
   -4.9919   -0.4680   -1.4082 H   0  0  0  0  0  0
   -4.7694    1.0779   -2.2317 H   0  0  0  0  0  0
   -6.4674    0.5421    0.2279 H   0  0  0  0  0  0
   -6.9706    1.3581   -1.2557 H   0  0  0  0  0  0
   -2.3826    0.1386   -1.7278 H   0  0  0  0  0  0
   -2.4445    1.8836   -1.6954 H   0  0  0  0  0  0
   -1.3094    1.8654    0.5617 H   0  0  0  0  0  0
   -6.3922    2.2974    1.7507 H   0  0  0  0  0  0
   -0.9203   -1.6927   -0.7118 H   0  0  0  0  0  0
   -1.9061    0.8931    2.6077 H   0  0  0  0  0  0
    2.1659    0.7186   -2.2743 H   0  0  0  0  0  0
    2.8184    1.9689   -1.2308 H   0  0  0  0  0  0
    0.8602    2.5253   -1.5828 H   0  0  0  0  0  0
   -1.1637   -3.6694    0.7645 H   0  0  0  0  0  0
   -2.1482   -1.0902    4.0722 H   0  0  0  0  0  0
   -1.7783   -3.3735    3.1570 H   0  0  0  0  0  0
    4.6927    1.4869    0.2624 H   0  0  0  0  0  0
    2.7894   -1.7020   -1.9359 H   0  0  0  0  0  0
    4.6500   -3.2251   -1.3319 H   0  0  0  0  0  0
   -3.7716    0.9460   -0.3711 N   0  3  1  0  0  0
   -3.7168    0.1984    0.3070 H   0  0  0  0  0  0
  1 24  1  0  0  0
  2 26  1  0  0  0
  3  8  1  0  0  0
  3 37  1  0  0  0
  4  6  1  0  0  0
  4 42  1  0  0  0
  5 14  2  0  0  0
  6 12  1  0  0  0
  6 14  1  0  0  0
  7  8  1  0  0  0
  7 27  1  0  0  0
  7 28  1  0  0  0
  7 49  1  0  0  0
  8 10  1  0  0  0
  8 29  1  0  0  0
  9 10  1  0  0  0
  9 30  1  0  0  0
  9 31  1  0  0  0
  9 49  1  0  0  0
 10 32  1  0  0  0
 10 33  1  0  0  0
 11 12  1  0  0  0
 11 34  1  0  0  0
 11 35  1  0  0  0
 11 49  1  0  0  0
 12 13  1  0  0  0
 12 36  1  0  0  0
 13 15  2  0  0  0
 13 16  1  0  0  0
 14 17  1  0  0  0
 15 18  1  0  0  0
 15 38  1  0  0  0
 16 19  2  0  0  0
 16 39  1  0  0  0
 17 21  1  0  0  0
 17 40  1  0  0  0
 17 41  1  0  0  0
 18 20  2  0  0  0
 18 43  1  0  0  0
 19 20  1  0  0  0
 19 44  1  0  0  0
 20 45  1  0  0  0
 21 22  2  0  0  0
 21 23  1  0  0  0
 22 24  1  0  0  0
 22 46  1  0  0  0
 23 25  2  0  0  0
 23 47  1  0  0  0
 24 26  2  0  0  0
 25 26  1  0  0  0
 25 48  1  0  0  0
 49 50  1  0  0  0
M  CHG  1  49   1
M  END
> <LID>
L015593

> <PC_CID>
9873061

> <Names>


> <CAS_Numbers>


$$$$
122115
                    3D
 Structure written by MMmdl.
 54 57  0  0  1  0            999 V2000
    3.0990   -2.0022    2.3049 S   0  0  0  0  0  0
   -0.2785   -0.3124   -2.3640 O   0  0  0  0  0  0
   -0.7733    1.5600   -1.1821 N   0  0  0  0  0  0
   -2.6511    1.0121    0.4045 C   0  0  1  0  0  0
   -2.2182    1.2431   -1.0684 C   0  0  1  0  0  0
   -4.1547    0.6501    0.4803 C   0  0  0  0  0  0
   -3.1120    2.2875   -1.7791 C   0  0  0  0  0  0
   -5.0185    1.7200   -0.2061 C   0  0  0  0  0  0
   -4.5986    1.9130   -1.6721 C   0  0  0  0  0  0
   -1.8731   -1.3927    0.7320 C   0  0  0  0  0  0
   -1.7067    0.1220    2.5684 C   0  0  0  0  0  0
   -1.0910   -2.1158    1.8218 C   0  0  0  0  0  0
   -1.3883   -1.2932    3.0763 C   0  0  0  0  0  0
   -0.3378    2.8333   -0.5914 C   0  0  0  0  0  0
    0.0984    0.7031   -1.7773 C   0  0  0  0  0  0
    1.6189    0.9487   -1.6928 C   0  0  0  0  0  0
    2.3300   -0.3098   -1.2092 C   0  0  0  0  0  0
    2.4275   -0.5844    0.1830 C   0  0  0  0  0  0
    2.8678   -1.1975   -2.1669 C   0  0  0  0  0  0
    3.0780   -1.8061    0.5580 C   0  0  0  0  0  0
    1.9760    0.1585    1.3448 C   0  0  0  0  0  0
    3.5056   -2.3831   -1.7657 C   0  0  0  0  0  0
    3.6080   -2.6895   -0.3997 C   0  0  0  0  0  0
    2.2787   -0.4880    2.5163 C   0  0  0  0  0  0
   -2.5251    1.9581    0.9331 H   0  0  0  0  0  0
   -2.4329    0.3060   -1.5838 H   0  0  0  0  0  0
   -4.4730    0.5365    1.5165 H   0  0  0  0  0  0
   -4.3506   -0.3016   -0.0127 H   0  0  0  0  0  0
   -2.8293    2.3632   -2.8298 H   0  0  0  0  0  0
   -2.9824    3.2824   -1.3559 H   0  0  0  0  0  0
   -4.9312    2.6658    0.3304 H   0  0  0  0  0  0
   -6.0697    1.4339   -0.1579 H   0  0  0  0  0  0
   -4.7883    0.9962   -2.2319 H   0  0  0  0  0  0
   -5.2103    2.6880   -2.1350 H   0  0  0  0  0  0
   -1.4853   -1.6018   -0.2648 H   0  0  0  0  0  0
   -2.9086   -1.7274    0.7722 H   0  0  0  0  0  0
   -2.6547    0.4652    2.9835 H   0  0  0  0  0  0
   -0.9379    0.8368    2.8637 H   0  0  0  0  0  0
   -0.0253   -2.0820    1.5950 H   0  0  0  0  0  0
   -1.3764   -3.1633    1.9242 H   0  0  0  0  0  0
   -2.2599   -1.7033    3.5883 H   0  0  0  0  0  0
   -0.5563   -1.3059    3.7811 H   0  0  0  0  0  0
    0.3137    2.6689    0.2647 H   0  0  0  0  0  0
    0.2001    3.4347   -1.3258 H   0  0  0  0  0  0
   -1.1595    3.4444   -0.2237 H   0  0  0  0  0  0
    1.9778    1.2148   -2.6876 H   0  0  0  0  0  0
    1.9041    1.7738   -1.0439 H   0  0  0  0  0  0
    2.7819   -0.9742   -3.2205 H   0  0  0  0  0  0
    1.4749    1.1106    1.2952 H   0  0  0  0  0  0
    3.9104   -3.0581   -2.5056 H   0  0  0  0  0  0
    4.0935   -3.6013   -0.0841 H   0  0  0  0  0  0
    2.0605   -0.1505    3.5191 H   0  0  0  0  0  0
   -1.7539    0.0367    1.0915 N   0  3  0  0  0  0
   -0.8194    0.2895    0.8037 H   0  0  0  0  0  0
  1 20  1  0  0  0
  1 24  1  0  0  0
  2 15  2  0  0  0
  3  5  1  0  0  0
  3 14  1  0  0  0
  3 15  1  0  0  0
  4  5  1  0  0  0
  4  6  1  0  0  0
  4 25  1  0  0  0
  4 53  1  0  0  0
  5  7  1  0  0  0
  5 26  1  0  0  0
  6  8  1  0  0  0
  6 27  1  0  0  0
  6 28  1  0  0  0
  7  9  1  0  0  0
  7 29  1  0  0  0
  7 30  1  0  0  0
  8  9  1  0  0  0
  8 31  1  0  0  0
  8 32  1  0  0  0
  9 33  1  0  0  0
  9 34  1  0  0  0
 10 12  1  0  0  0
 10 35  1  0  0  0
 10 36  1  0  0  0
 10 53  1  0  0  0
 11 13  1  0  0  0
 11 37  1  0  0  0
 11 38  1  0  0  0
 11 53  1  0  0  0
 12 13  1  0  0  0
 12 39  1  0  0  0
 12 40  1  0  0  0
 13 41  1  0  0  0
 13 42  1  0  0  0
 14 43  1  0  0  0
 14 44  1  0  0  0
 14 45  1  0  0  0
 15 16  1  0  0  0
 16 17  1  0  0  0
 16 46  1  0  0  0
 16 47  1  0  0  0
 17 18  2  0  0  0
 17 19  1  0  0  0
 18 20  1  0  0  0
 18 21  1  0  0  0
 19 22  2  0  0  0
 19 48  1  0  0  0
 20 23  2  0  0  0
 21 24  2  0  0  0
 21 49  1  0  0  0
 22 23  1  0  0  0
 22 50  1  0  0  0
 23 51  1  0  0  0
 24 52  1  0  0  0
 53 54  1  0  0  0
M  CHG  1  53   1
M  END
> <LID>
L000466

> <PC_CID>
122115

> <Names>
PD 117302

> <CAS_Numbers>
111728-01-9

$$$$
9797859
                    3D
 Structure written by MMmdl.
 50 51  0  0  1  0            999 V2000
    3.9056   -0.8771   -1.8749 F   0  0  0  0  0  0
    4.2271    0.0363    1.2417 O   0  0  0  0  0  0
   -6.3206    0.1097   -0.2736 O   0  0  0  0  0  0
   -6.2886   -1.8800    0.8660 O   0  0  0  0  0  0
    2.3212    0.4141    0.0740 N   0  0  0  0  0  0
    0.8623    0.3433   -0.1817 C   0  0  0  0  0  0
    0.3970   -0.9989   -0.7784 C   0  0  0  0  0  0
   -0.0608    0.7844    0.9726 C   0  0  0  0  0  0
   -1.0817   -0.9118   -1.1972 C   0  0  0  0  0  0
   -1.5206    0.8329    0.4897 C   0  0  0  0  0  0
   -3.3881   -0.5256   -0.4183 C   0  0  0  0  0  0
    3.0589    1.1487   -0.8986 C   0  0  0  0  0  0
   -4.2958   -0.5283    0.8256 C   0  0  0  0  0  0
    3.0126   -0.1394    1.1131 C   0  0  0  0  0  0
    2.3101   -0.9864    2.1898 C   0  0  0  0  0  0
    3.8446    0.4765   -1.8631 C   0  0  0  0  0  0
    2.9860    2.5589   -0.9127 C   0  0  0  0  0  0
   -5.7478   -0.8457    0.4754 C   0  0  0  0  0  0
    3.2516   -1.9759    2.8966 C   0  0  0  0  0  0
    4.5613    1.2149   -2.8247 C   0  0  0  0  0  0
    3.7042    3.2932   -1.8762 C   0  0  0  0  0  0
    4.4926    2.6217   -2.8307 C   0  0  0  0  0  0
   -7.6704   -0.0382   -0.6797 C   0  0  0  0  0  0
    0.6684    1.0742   -0.9700 H   0  0  0  0  0  0
    1.0051   -1.2476   -1.6491 H   0  0  0  0  0  0
    0.5199   -1.8234   -0.0802 H   0  0  0  0  0  0
   -0.0178    0.1053    1.8197 H   0  0  0  0  0  0
    0.2407    1.7659    1.3405 H   0  0  0  0  0  0
   -1.1970   -0.2126   -2.0271 H   0  0  0  0  0  0
   -1.4048   -1.8879   -1.5614 H   0  0  0  0  0  0
   -2.1560    1.1146    1.3289 H   0  0  0  0  0  0
   -1.6424    1.6074   -0.2694 H   0  0  0  0  0  0
   -3.6321    0.3101   -1.0766 H   0  0  0  0  0  0
   -3.5820   -1.4357   -0.9891 H   0  0  0  0  0  0
   -3.9470   -1.2752    1.5395 H   0  0  0  0  0  0
   -4.2654    0.4356    1.3331 H   0  0  0  0  0  0
    1.8874   -0.3131    2.9353 H   0  0  0  0  0  0
    1.4925   -1.5618    1.7697 H   0  0  0  0  0  0
    2.3835    3.0793   -0.1824 H   0  0  0  0  0  0
    2.7017   -2.5834    3.6156 H   0  0  0  0  0  0
    3.7225   -2.6544    2.1842 H   0  0  0  0  0  0
    4.0412   -1.4592    3.4436 H   0  0  0  0  0  0
    5.1624    0.7009   -3.5600 H   0  0  0  0  0  0
    3.6507    4.3720   -1.8830 H   0  0  0  0  0  0
    5.0432    3.1857   -3.5693 H   0  0  0  0  0  0
   -7.9742    0.8214   -1.2769 H   0  0  0  0  0  0
   -7.7982   -0.9361   -1.2857 H   0  0  0  0  0  0
   -8.3320   -0.1030    0.1850 H   0  0  0  0  0  0
   -1.9468   -0.4824   -0.0648 N   0  3  0  0  0  0
   -1.8125   -1.1669    0.6660 H   0  0  0  0  0  0
  1 16  1  0  0  0
  2 14  2  0  0  0
  3 18  1  0  0  0
  3 23  1  0  0  0
  4 18  2  0  0  0
  5  6  1  0  0  0
  5 12  1  0  0  0
  5 14  1  0  0  0
  6  7  1  0  0  0
  6  8  1  0  0  0
  6 24  1  0  0  0
  7  9  1  0  0  0
  7 25  1  0  0  0
  7 26  1  0  0  0
  8 10  1  0  0  0
  8 27  1  0  0  0
  8 28  1  0  0  0
  9 29  1  0  0  0
  9 30  1  0  0  0
  9 49  1  0  0  0
 10 31  1  0  0  0
 10 32  1  0  0  0
 10 49  1  0  0  0
 11 13  1  0  0  0
 11 33  1  0  0  0
 11 34  1  0  0  0
 11 49  1  0  0  0
 12 16  1  0  0  0
 12 17  2  0  0  0
 13 18  1  0  0  0
 13 35  1  0  0  0
 13 36  1  0  0  0
 14 15  1  0  0  0
 15 19  1  0  0  0
 15 37  1  0  0  0
 15 38  1  0  0  0
 16 20  2  0  0  0
 17 21  1  0  0  0
 17 39  1  0  0  0
 19 40  1  0  0  0
 19 41  1  0  0  0
 19 42  1  0  0  0
 20 22  1  0  0  0
 20 43  1  0  0  0
 21 22  2  0  0  0
 21 44  1  0  0  0
 22 45  1  0  0  0
 23 46  1  0  0  0
 23 47  1  0  0  0
 23 48  1  0  0  0
 49 50  1  0  0  0
M  CHG  1  49   1
M  END
> <LID>
L004291

> <PC_CID>
9797859

> <Names>


> <CAS_Numbers>


$$$$
15925323
                    3D
 Structure written by MMmdl.
 62 66  0  0  1  0            999 V2000
   -3.5888    1.7595    1.2228 S   0  0  0  0  0  0
    7.2043    2.0736   -0.6209 F   0  0  0  0  0  0
    2.8764    3.5452    0.1817 O   0  0  0  0  0  0
   -1.7606   -0.2314   -0.0852 N   0  0  0  0  0  0
    3.1510    1.3025    0.3775 N   0  0  0  0  0  0
   -2.1545   -2.4190    1.0822 C   0  0  0  0  0  0
   -2.4636   -4.6248    2.1969 C   0  0  0  0  0  0
   -0.5579   -3.3099    2.7883 C   0  0  0  0  0  0
   -1.9712   -5.0544    3.5848 C   0  0  0  0  0  0
   -0.5258   -4.5738    3.6411 C   0  0  0  0  0  0
   -1.1527   -1.5152    0.3225 C   0  0  1  0  0  0
   -0.4358   -2.2541   -0.8267 C   0  0  0  0  0  0
   -1.1192    0.8960    0.3181 C   0  0  0  0  0  0
   -2.9969   -0.1940   -0.6533 C   0  0  0  0  0  0
   -1.8434    1.9124    0.9867 C   0  0  0  0  0  0
   -3.9875    0.6598   -0.1032 C   0  0  0  0  0  0
    0.2700    1.0695    0.1130 C   0  0  0  0  0  0
   -3.3393   -0.9889   -1.7730 C   0  0  0  0  0  0
   -1.1878    3.0663    1.4551 C   0  0  0  0  0  0
    0.9362    2.2250    0.5837 C   0  0  0  0  0  0
   -5.2967    0.6720   -0.6230 C   0  0  0  0  0  0
    0.1950    3.2242    1.2504 C   0  0  0  0  0  0
   -4.6456   -0.9677   -2.2987 C   0  0  0  0  0  0
   -5.6282   -0.1462   -1.7177 C   0  0  0  0  0  0
    2.4062    2.4194    0.3452 C   0  0  0  0  0  0
    4.5959    1.2556    0.1730 C   0  0  0  0  0  0
    5.0386    1.2820   -1.2868 C   0  0  0  0  0  0
    6.3512    1.6977   -1.6039 C   0  0  0  0  0  0
    4.1727    0.8777   -2.3302 C   0  0  0  0  0  0
    6.7857    1.7235   -2.9435 C   0  0  0  0  0  0
    4.6090    0.9045   -3.6690 C   0  0  0  0  0  0
    5.9151    1.3291   -3.9767 C   0  0  0  0  0  0
   -2.9274   -2.7679    0.3962 H   0  0  0  0  0  0
   -2.6643   -1.8485    1.8608 H   0  0  0  0  0  0
   -2.4656   -5.4682    1.5057 H   0  0  0  0  0  0
   -3.4848   -4.2445    2.2547 H   0  0  0  0  0  0
   -0.9263   -2.4752    3.3874 H   0  0  0  0  0  0
    0.4281   -3.0428    2.4068 H   0  0  0  0  0  0
   -2.5543   -4.5459    4.3541 H   0  0  0  0  0  0
   -2.0653   -6.1278    3.7528 H   0  0  0  0  0  0
    0.1319   -5.3155    3.1855 H   0  0  0  0  0  0
   -0.1772   -4.3916    4.6581 H   0  0  0  0  0  0
   -0.3755   -1.2660    1.0458 H   0  0  0  0  0  0
    0.0961   -1.5675   -1.4850 H   0  0  0  0  0  0
    0.3012   -2.9521   -0.4293 H   0  0  0  0  0  0
   -1.1186   -2.8446   -1.4346 H   0  0  0  0  0  0
    0.8284    0.3111   -0.4146 H   0  0  0  0  0  0
   -2.6111   -1.6155   -2.2578 H   0  0  0  0  0  0
   -1.7466    3.8391    1.9624 H   0  0  0  0  0  0
   -6.0450    1.3215   -0.1927 H   0  0  0  0  0  0
    0.6828    4.1199    1.6081 H   0  0  0  0  0  0
   -4.8931   -1.5823   -3.1517 H   0  0  0  0  0  0
   -6.6300   -0.1311   -2.1213 H   0  0  0  0  0  0
    2.6840    0.4249    0.5506 H   0  0  0  0  0  0
    5.0660    2.0770    0.7167 H   0  0  0  0  0  0
    4.9713    0.3367    0.6238 H   0  0  0  0  0  0
    3.1685    0.5427   -2.1171 H   0  0  0  0  0  0
    7.7897    2.0453   -3.1778 H   0  0  0  0  0  0
    3.9412    0.5975   -4.4604 H   0  0  0  0  0  0
    6.2498    1.3492   -5.0035 H   0  0  0  0  0  0
   -1.5099   -3.6057    1.6952 N   0  3  0  0  0  0
   -0.9783   -4.0638    0.9686 H   0  0  0  0  0  0
  1 15  1  0  0  0
  1 16  1  0  0  0
  2 28  1  0  0  0
  3 25  2  0  0  0
  4 11  1  0  0  0
  4 13  1  0  0  0
  4 14  1  0  0  0
  5 25  1  0  0  0
  5 26  1  0  0  0
  5 54  1  0  0  0
  6 11  1  0  0  0
  6 33  1  0  0  0
  6 34  1  0  0  0
  6 61  1  0  0  0
  7  9  1  0  0  0
  7 35  1  0  0  0
  7 36  1  0  0  0
  7 61  1  0  0  0
  8 10  1  0  0  0
  8 37  1  0  0  0
  8 38  1  0  0  0
  8 61  1  0  0  0
  9 10  1  0  0  0
  9 39  1  0  0  0
  9 40  1  0  0  0
 10 41  1  0  0  0
 10 42  1  0  0  0
 11 12  1  0  0  0
 11 43  1  0  0  0
 12 44  1  0  0  0
 12 45  1  0  0  0
 12 46  1  0  0  0
 13 15  2  0  0  0
 13 17  1  0  0  0
 14 16  1  0  0  0
 14 18  2  0  0  0
 15 19  1  0  0  0
 16 21  2  0  0  0
 17 20  2  0  0  0
 17 47  1  0  0  0
 18 23  1  0  0  0
 18 48  1  0  0  0
 19 22  2  0  0  0
 19 49  1  0  0  0
 20 22  1  0  0  0
 20 25  1  0  0  0
 21 24  1  0  0  0
 21 50  1  0  0  0
 22 51  1  0  0  0
 23 24  2  0  0  0
 23 52  1  0  0  0
 24 53  1  0  0  0
 26 27  1  0  0  0
 26 55  1  0  0  0
 26 56  1  0  0  0
 27 28  1  0  0  0
 27 29  2  0  0  0
 28 30  2  0  0  0
 29 31  1  0  0  0
 29 57  1  0  0  0
 30 32  1  0  0  0
 30 58  1  0  0  0
 31 32  2  0  0  0
 31 59  1  0  0  0
 32 60  1  0  0  0
 61 62  1  0  0  0
M  CHG  1  61   1
M  END
> <LID>
L003541

> <PC_CID>
15925323

> <Names>


> <CAS_Numbers>


$$$$
18955362
                    3D
 Structure written by MMmdl.
 46 48  0  0  1  0            999 V2000
    5.1193    0.1516   -3.0111 Cl  0  0  0  0  0  0
    6.5167    1.6515   -0.5683 Cl  0  0  0  0  0  0
    0.2789    0.4266   -0.2209 O   0  0  0  0  0  0
   -1.0423   -1.3230    0.4037 N   0  0  0  0  0  0
   -2.3749   -0.6760    0.2585 C   0  0  2  0  0  0
   -2.9449   -1.1257   -1.1085 C   0  0  0  0  0  0
   -2.4118    0.8590    0.5112 C   0  0  0  0  0  0
   -3.0515   -2.6606   -1.1878 C   0  0  0  0  0  0
   -1.2001   -2.7828    0.5426 C   0  0  0  0  0  0
   -1.7397   -3.3522   -0.7814 C   0  0  0  0  0  0
    0.1643   -0.7439    0.1428 C   0  0  0  0  0  0
   -3.7884    2.5945    1.6524 C   0  0  0  0  0  0
   -4.5911    1.6961   -0.4530 C   0  0  0  0  0  0
    1.4486   -1.5816    0.3159 C   0  0  0  0  0  0
   -4.8340    3.4817    1.0405 C   0  0  0  0  0  0
   -5.2686    2.9931   -0.1143 C   0  0  0  0  0  0
    2.7188   -0.7737    0.0883 C   0  0  0  0  0  0
    3.2827   -0.6863   -1.2021 C   0  0  0  0  0  0
    3.3412   -0.1101    1.1664 C   0  0  0  0  0  0
    4.4572    0.0618   -1.4178 C   0  0  0  0  0  0
    4.5153    0.6374    0.9536 C   0  0  0  0  0  0
    5.0760    0.7263   -0.3358 C   0  0  0  0  0  0
   -3.0135   -1.1009    1.0352 H   0  0  0  0  0  0
   -2.3076   -0.7558   -1.9130 H   0  0  0  0  0  0
   -3.9343   -0.7140   -1.2863 H   0  0  0  0  0  0
   -1.8108    1.0580    1.4003 H   0  0  0  0  0  0
   -1.9602    1.4214   -0.3064 H   0  0  0  0  0  0
   -3.8478   -2.9948   -0.5216 H   0  0  0  0  0  0
   -3.3440   -2.9679   -2.1923 H   0  0  0  0  0  0
   -0.2941   -3.3121    0.8309 H   0  0  0  0  0  0
   -1.9036   -2.9979    1.3482 H   0  0  0  0  0  0
   -1.8968   -4.4276   -0.6933 H   0  0  0  0  0  0
   -0.9955   -3.2125   -1.5668 H   0  0  0  0  0  0
   -2.8335    3.1224    1.6558 H   0  0  0  0  0  0
   -4.0473    2.3181    2.6748 H   0  0  0  0  0  0
   -5.3347    0.9185   -0.6269 H   0  0  0  0  0  0
   -3.9829    1.8230   -1.3496 H   0  0  0  0  0  0
    1.4796   -1.9993    1.3230 H   0  0  0  0  0  0
    1.4372   -2.4172   -0.3853 H   0  0  0  0  0  0
   -5.1550    4.4075    1.4954 H   0  0  0  0  0  0
   -6.0056    3.4528   -0.7567 H   0  0  0  0  0  0
    2.8111   -1.1909   -2.0328 H   0  0  0  0  0  0
    2.9183   -0.1696    2.1587 H   0  0  0  0  0  0
    4.9862    1.1446    1.7828 H   0  0  0  0  0  0
   -3.7758    1.3963    0.7618 N   0  3  0  0  0  0
   -4.2821    0.6864    1.2716 H   0  0  0  0  0  0
  1 20  1  0  0  0
  2 22  1  0  0  0
  3 11  2  0  0  0
  4  5  1  0  0  0
  4  9  1  0  0  0
  4 11  1  0  0  0
  5  6  1  0  0  0
  5  7  1  0  0  0
  5 23  1  0  0  0
  6  8  1  0  0  0
  6 24  1  0  0  0
  6 25  1  0  0  0
  7 26  1  0  0  0
  7 27  1  0  0  0
  7 45  1  0  0  0
  8 10  1  0  0  0
  8 28  1  0  0  0
  8 29  1  0  0  0
  9 10  1  0  0  0
  9 30  1  0  0  0
  9 31  1  0  0  0
 10 32  1  0  0  0
 10 33  1  0  0  0
 11 14  1  0  0  0
 12 15  1  0  0  0
 12 34  1  0  0  0
 12 35  1  0  0  0
 12 45  1  0  0  0
 13 16  1  0  0  0
 13 36  1  0  0  0
 13 37  1  0  0  0
 13 45  1  0  0  0
 14 17  1  0  0  0
 14 38  1  0  0  0
 14 39  1  0  0  0
 15 16  2  0  0  0
 15 40  1  0  0  0
 16 41  1  0  0  0
 17 18  2  0  0  0
 17 19  1  0  0  0
 18 20  1  0  0  0
 18 42  1  0  0  0
 19 21  2  0  0  0
 19 43  1  0  0  0
 20 22  2  0  0  0
 21 22  1  0  0  0
 21 44  1  0  0  0
 45 46  1  0  0  0
M  CHG  1  45   1
M  END
> <LID>
L005476

> <PC_CID>
18955362

> <Names>


> <CAS_Numbers>


$$$$
15096214
                    3D
 Structure written by MMmdl.
 62 66  0  0  1  0            999 V2000
   -2.4711   -1.7568   -2.0914 S   0  0  0  0  0  0
    3.7684   -2.9244    0.3097 O   0  0  0  0  0  0
   -1.5755   -0.2144    0.3238 N   0  0  0  0  0  0
    3.5126   -0.7818    1.0103 N   0  0  0  0  0  0
    5.8301   -0.0262    0.6490 C   0  0  0  0  0  0
    7.2918    0.1564    1.0847 C   0  0  0  0  0  0
    6.3665   -0.8905   -0.5037 C   0  0  0  0  0  0
    7.7139   -0.1815   -0.3477 C   0  0  0  0  0  0
    4.8180   -0.6033    1.6356 C   0  0  0  0  0  0
   -2.1861    2.1791   -0.1239 C   0  0  0  0  0  0
   -2.7351    4.5805   -0.4918 C   0  0  0  0  0  0
   -0.4787    3.8671   -0.8231 C   0  0  0  0  0  0
   -1.2194    1.1964    0.5814 C   0  0  1  0  0  0
   -2.0278    5.5751   -1.4212 C   0  0  0  0  0  0
   -0.5433    5.3540   -1.1556 C   0  0  0  0  0  0
   -1.0234    1.5229    2.0765 C   0  0  0  0  0  0
   -0.5976   -0.9979   -0.1999 C   0  0  0  0  0  0
   -2.8668   -0.6351    0.4129 C   0  0  0  0  0  0
    3.0856   -1.9051    0.4110 C   0  0  0  0  0  0
   -0.8586   -1.7566   -1.3664 C   0  0  0  0  0  0
    1.7197   -1.8301   -0.2101 C   0  0  0  0  0  0
    0.6938   -1.0521    0.3760 C   0  0  0  0  0  0
   -3.4472   -1.3282   -0.6805 C   0  0  0  0  0  0
   -3.6631   -0.3956    1.5580 C   0  0  0  0  0  0
    0.1560   -2.5353   -1.9535 C   0  0  0  0  0  0
    1.4380   -2.5751   -1.3756 C   0  0  0  0  0  0
   -4.8009   -1.7166   -0.6496 C   0  0  0  0  0  0
   -5.0133   -0.7941    1.5920 C   0  0  0  0  0  0
   -5.5866   -1.4446    0.4846 C   0  0  0  0  0  0
    5.4724    0.9209    0.2390 H   0  0  0  0  0  0
    7.6171   -0.5947    1.8066 H   0  0  0  0  0  0
    7.5485    1.1646    1.4112 H   0  0  0  0  0  0
    6.4184   -1.9510   -0.2511 H   0  0  0  0  0  0
    5.8713   -0.7307   -1.4619 H   0  0  0  0  0  0
    8.5854   -0.8319   -0.4271 H   0  0  0  0  0  0
    7.8048    0.7012   -0.9829 H   0  0  0  0  0  0
    4.6936    0.0734    2.4812 H   0  0  0  0  0  0
    5.1760   -1.5455    2.0544 H   0  0  0  0  0  0
   -3.1692    2.1274    0.3459 H   0  0  0  0  0  0
   -2.3247    1.8906   -1.1675 H   0  0  0  0  0  0
   -3.1200    5.0829    0.3963 H   0  0  0  0  0  0
   -3.5822    4.1178   -1.0009 H   0  0  0  0  0  0
   -0.4653    3.2870   -1.7476 H   0  0  0  0  0  0
    0.4124    3.6095   -0.2497 H   0  0  0  0  0  0
   -0.2471    1.3541    0.1133 H   0  0  0  0  0  0
   -2.3376    6.6066   -1.2502 H   0  0  0  0  0  0
   -2.2526    5.3292   -2.4601 H   0  0  0  0  0  0
    0.0860    5.6278   -2.0030 H   0  0  0  0  0  0
   -0.2266    5.9438   -0.2942 H   0  0  0  0  0  0
    2.8917    0.0135    1.0182 H   0  0  0  0  0  0
   -0.5218    0.7147    2.6083 H   0  0  0  0  0  0
   -0.4072    2.4144    2.1940 H   0  0  0  0  0  0
   -1.9624    1.7314    2.5856 H   0  0  0  0  0  0
    0.8971   -0.4940    1.2773 H   0  0  0  0  0  0
   -3.2559    0.0813    2.4325 H   0  0  0  0  0  0
   -0.0499   -3.1132   -2.8425 H   0  0  0  0  0  0
    2.2043   -3.1840   -1.8340 H   0  0  0  0  0  0
   -5.2346   -2.2386   -1.4900 H   0  0  0  0  0  0
   -5.6099   -0.6018    2.4717 H   0  0  0  0  0  0
   -6.6225   -1.7494    0.5116 H   0  0  0  0  0  0
   -1.7197    3.5858   -0.0684 N   0  3  0  0  0  0
   -1.5199    3.7948    0.8995 H   0  0  0  0  0  0
  1 20  1  0  0  0
  1 23  1  0  0  0
  2 19  2  0  0  0
  3 13  1  0  0  0
  3 17  1  0  0  0
  3 18  1  0  0  0
  4  9  1  0  0  0
  4 19  1  0  0  0
  4 50  1  0  0  0
  5  6  1  0  0  0
  5  7  1  0  0  0
  5  9  1  0  0  0
  5 30  1  0  0  0
  6  8  1  0  0  0
  6 31  1  0  0  0
  6 32  1  0  0  0
  7  8  1  0  0  0
  7 33  1  0  0  0
  7 34  1  0  0  0
  8 35  1  0  0  0
  8 36  1  0  0  0
  9 37  1  0  0  0
  9 38  1  0  0  0
 10 13  1  0  0  0
 10 39  1  0  0  0
 10 40  1  0  0  0
 10 61  1  0  0  0
 11 14  1  0  0  0
 11 41  1  0  0  0
 11 42  1  0  0  0
 11 61  1  0  0  0
 12 15  1  0  0  0
 12 43  1  0  0  0
 12 44  1  0  0  0
 12 61  1  0  0  0
 13 16  1  0  0  0
 13 45  1  0  0  0
 14 15  1  0  0  0
 14 46  1  0  0  0
 14 47  1  0  0  0
 15 48  1  0  0  0
 15 49  1  0  0  0
 16 51  1  0  0  0
 16 52  1  0  0  0
 16 53  1  0  0  0
 17 20  2  0  0  0
 17 22  1  0  0  0
 18 23  1  0  0  0
 18 24  2  0  0  0
 19 21  1  0  0  0
 20 25  1  0  0  0
 21 22  2  0  0  0
 21 26  1  0  0  0
 22 54  1  0  0  0
 23 27  2  0  0  0
 24 28  1  0  0  0
 24 55  1  0  0  0
 25 26  2  0  0  0
 25 56  1  0  0  0
 26 57  1  0  0  0
 27 29  1  0  0  0
 27 58  1  0  0  0
 28 29  2  0  0  0
 28 59  1  0  0  0
 29 60  1  0  0  0
 61 62  1  0  0  0
M  CHG  1  61   1
M  END
> <LID>
L003539

> <PC_CID>
15096214

> <Names>


> <CAS_Numbers>


$$$$
10370974
                    3D
 Structure written by MMmdl.
 86 90  0  0  1  0            999 V2000
    1.7298    1.4601   -0.9556 O   0  0  0  0  0  0
    8.5517    3.6936    1.8426 O   0  0  0  0  0  0
    7.0572    5.2604    2.5980 O   0  0  0  0  0  0
    2.6410   -1.9663   -1.1825 N   0  0  0  0  0  0
    3.5935    0.1561   -1.0497 N   0  0  0  0  0  0
   -6.0483    0.0106   -2.6776 N   0  0  0  0  0  0
    1.5427   -0.9784   -1.1163 C   0  0  0  0  0  0
    0.6617   -0.9958   -2.4002 C   0  0  0  0  0  0
    0.6695   -1.1602    0.1603 C   0  0  0  0  0  0
   -0.6231   -0.1517   -2.2851 C   0  0  0  0  0  0
   -0.6158   -0.3091    0.1632 C   0  0  0  0  0  0
    2.2811    0.3621   -1.0326 C   0  0  0  0  0  0
    3.9221   -1.2498   -1.1412 C   0  0  0  0  0  0
   -2.7305    0.1586   -1.0449 C   0  0  0  0  0  0
    2.5826   -3.3329   -1.2690 C   0  0  0  0  0  0
    4.6389    1.1714   -0.9620 C   0  0  0  0  0  0
   -3.7644   -0.6059   -0.1866 C   0  0  0  0  0  0
    4.9005    1.5826    0.4960 C   0  0  0  0  0  0
   -5.1907    0.0137   -0.1851 C   0  0  0  0  0  0
    3.7801   -4.0965   -1.3202 C   0  0  0  0  0  0
    1.3585   -4.0512   -1.3119 C   0  0  0  0  0  0
    6.0055    2.6402    0.6179 C   0  0  0  0  0  0
   -6.2081   -0.8011    0.6330 C   0  0  0  0  0  0
   -5.1147    1.4401    0.3844 C   0  0  0  0  0  0
    3.7564   -5.5016   -1.4093 C   0  0  0  0  0  0
    1.3315   -5.4564   -1.4010 C   0  0  0  0  0  0
    6.2606    3.0467    2.0782 C   0  0  0  0  0  0
    2.5307   -6.1854   -1.4499 C   0  0  0  0  0  0
   -5.6733    0.0137   -1.5822 C   0  0  0  0  0  0
   -7.5611   -0.3864    0.6408 C   0  0  0  0  0  0
   -5.2992    2.5839   -0.4306 C   0  0  0  0  0  0
   -5.8496   -1.9478    1.3853 C   0  0  0  0  0  0
   -4.8343    1.6259    1.7587 C   0  0  0  0  0  0
    7.3322    4.1279    2.2010 C   0  0  0  0  0  0
   -8.5311   -1.0938    1.3758 C   0  0  0  0  0  0
   -5.2109    3.8773    0.1196 C   0  0  0  0  0  0
   -6.8203   -2.6557    2.1206 C   0  0  0  0  0  0
   -4.7464    2.9189    2.3085 C   0  0  0  0  0  0
   -8.1611   -2.2304    2.1168 C   0  0  0  0  0  0
   -4.9353    4.0462    1.4888 C   0  0  0  0  0  0
    9.6560    4.5810    1.8998 C   0  0  0  0  0  0
   10.9161    3.8517    1.4273 C   0  0  0  0  0  0
    0.3696   -2.0045   -2.6771 H   0  0  0  0  0  0
    1.2425   -0.6410   -3.2534 H   0  0  0  0  0  0
    1.2562   -0.9171    1.0480 H   0  0  0  0  0  0
    0.3787   -2.1961    0.3081 H   0  0  0  0  0  0
   -0.3978    0.9148   -2.2688 H   0  0  0  0  0  0
   -1.2254   -0.3203   -3.1788 H   0  0  0  0  0  0
   -1.2034   -0.5845    1.0378 H   0  0  0  0  0  0
   -0.3865    0.7503    0.2796 H   0  0  0  0  0  0
    4.5022   -1.4342   -2.0469 H   0  0  0  0  0  0
    4.5101   -1.5473   -0.2714 H   0  0  0  0  0  0
   -2.6043    1.1842   -0.6951 H   0  0  0  0  0  0
   -3.1144    0.2302   -2.0628 H   0  0  0  0  0  0
    5.5544    0.7819   -1.4093 H   0  0  0  0  0  0
    4.3539    2.0419   -1.5551 H   0  0  0  0  0  0
   -3.8212   -1.6294   -0.5606 H   0  0  0  0  0  0
   -3.4014   -0.6710    0.8383 H   0  0  0  0  0  0
    3.9814    1.9701    0.9379 H   0  0  0  0  0  0
    5.1759    0.7025    1.0787 H   0  0  0  0  0  0
    4.7516   -3.6278   -1.2926 H   0  0  0  0  0  0
    0.4028   -3.5587   -1.2785 H   0  0  0  0  0  0
    6.9244    2.2526    0.1755 H   0  0  0  0  0  0
    5.7290    3.5206    0.0358 H   0  0  0  0  0  0
    4.6832   -6.0549   -1.4464 H   0  0  0  0  0  0
    0.3851   -5.9760   -1.4320 H   0  0  0  0  0  0
    5.3387    3.4160    2.5286 H   0  0  0  0  0  0
    6.5714    2.1792    2.6609 H   0  0  0  0  0  0
    2.5105   -7.2632   -1.5183 H   0  0  0  0  0  0
   -7.8616    0.4863    0.0792 H   0  0  0  0  0  0
   -5.5069    2.4943   -1.4860 H   0  0  0  0  0  0
   -4.8341   -2.3096    1.4193 H   0  0  0  0  0  0
   -4.6858    0.7710    2.4021 H   0  0  0  0  0  0
   -9.5594   -0.7633    1.3712 H   0  0  0  0  0  0
   -5.3543    4.7422   -0.5113 H   0  0  0  0  0  0
   -6.5346   -3.5280    2.6901 H   0  0  0  0  0  0
   -4.5341    3.0454    3.3600 H   0  0  0  0  0  0
   -8.9039   -2.7744    2.6815 H   0  0  0  0  0  0
   -4.8683    5.0389    1.9093 H   0  0  0  0  0  0
    9.4670    5.4496    1.2675 H   0  0  0  0  0  0
    9.7909    4.9393    2.9213 H   0  0  0  0  0  0
   11.7820    4.5128    1.4612 H   0  0  0  0  0  0
   11.1295    2.9885    2.0581 H   0  0  0  0  0  0
   10.8040    3.4998    0.4015 H   0  0  0  0  0  0
   -1.4076   -0.5171   -1.0779 N   0  3  0  0  0  0
   -1.5933   -1.5072   -1.1523 H   0  0  0  0  0  0
  1 12  2  0  0  0
  2 34  1  0  0  0
  2 41  1  0  0  0
  3 34  2  0  0  0
  4  7  1  0  0  0
  4 13  1  0  0  0
  4 15  1  0  0  0
  5 12  1  0  0  0
  5 13  1  0  0  0
  5 16  1  0  0  0
  6 29  3  0  0  0
  7  8  1  0  0  0
  7  9  1  0  0  0
  7 12  1  0  0  0
  8 10  1  0  0  0
  8 43  1  0  0  0
  8 44  1  0  0  0
  9 11  1  0  0  0
  9 45  1  0  0  0
  9 46  1  0  0  0
 10 47  1  0  0  0
 10 48  1  0  0  0
 10 85  1  0  0  0
 11 49  1  0  0  0
 11 50  1  0  0  0
 11 85  1  0  0  0
 13 51  1  0  0  0
 13 52  1  0  0  0
 14 17  1  0  0  0
 14 53  1  0  0  0
 14 54  1  0  0  0
 14 85  1  0  0  0
 15 20  2  0  0  0
 15 21  1  0  0  0
 16 18  1  0  0  0
 16 55  1  0  0  0
 16 56  1  0  0  0
 17 19  1  0  0  0
 17 57  1  0  0  0
 17 58  1  0  0  0
 18 22  1  0  0  0
 18 59  1  0  0  0
 18 60  1  0  0  0
 19 23  1  0  0  0
 19 24  1  0  0  0
 19 29  1  0  0  0
 20 25  1  0  0  0
 20 61  1  0  0  0
 21 26  2  0  0  0
 21 62  1  0  0  0
 22 27  1  0  0  0
 22 63  1  0  0  0
 22 64  1  0  0  0
 23 30  2  0  0  0
 23 32  1  0  0  0
 24 31  2  0  0  0
 24 33  1  0  0  0
 25 28  2  0  0  0
 25 65  1  0  0  0
 26 28  1  0  0  0
 26 66  1  0  0  0
 27 34  1  0  0  0
 27 67  1  0  0  0
 27 68  1  0  0  0
 28 69  1  0  0  0
 30 35  1  0  0  0
 30 70  1  0  0  0
 31 36  1  0  0  0
 31 71  1  0  0  0
 32 37  2  0  0  0
 32 72  1  0  0  0
 33 38  2  0  0  0
 33 73  1  0  0  0
 35 39  2  0  0  0
 35 74  1  0  0  0
 36 40  2  0  0  0
 36 75  1  0  0  0
 37 39  1  0  0  0
 37 76  1  0  0  0
 38 40  1  0  0  0
 38 77  1  0  0  0
 39 78  1  0  0  0
 40 79  1  0  0  0
 41 42  1  0  0  0
 41 80  1  0  0  0
 41 81  1  0  0  0
 42 82  1  0  0  0
 42 83  1  0  0  0
 42 84  1  0  0  0
 85 86  1  0  0  0
M  CHG  1  85   1
M  END
> <LID>
L022594

> <PC_CID>
10370974

> <Names>


> <CAS_Numbers>


$$$$
18791751
                    3D
 Structure written by MMmdl.
 43 45  0  0  1  0            999 V2000
    2.0118    0.0194    2.1104 S   0  0  0  0  0  0
    4.0455    1.4200   -1.1925 O   0  0  0  0  0  0
   -4.3116   -0.5620   -0.1022 O   0  0  0  0  0  0
    3.0813    0.3427   -1.2808 N   0  0  0  0  0  0
    0.5871   -0.0513   -1.1104 C   0  0  1  0  0  0
    1.8240    0.8178   -0.7031 C   0  0  1  0  0  0
    1.8793    1.2790    0.7819 C   0  0  1  0  0  0
    0.8545   -1.5922   -1.0024 C   0  0  0  0  0  0
   -0.6745    0.3580   -0.3162 C   0  0  0  0  0  0
    0.6261    2.1211    1.0328 C   0  0  0  0  0  0
   -0.6509    1.3759    0.6769 C   0  0  0  0  0  0
    0.3141    0.2547   -2.6066 C   0  0  0  0  0  0
    0.7578   -2.2639    0.3840 C   0  0  0  0  0  0
    2.0997   -2.5726    1.0764 C   0  0  0  0  0  0
    2.9776   -1.3704    1.4608 C   0  0  0  0  0  0
   -1.9020   -0.2970   -0.5836 C   0  0  0  0  0  0
   -1.8326    1.7156    1.3653 C   0  0  0  0  0  0
   -3.0898    0.0399    0.1108 C   0  0  0  0  0  0
   -3.0394    1.0531    1.0847 C   0  0  0  0  0  0
   -4.3894   -1.5974   -1.0710 C   0  0  0  0  0  0
    1.6686    1.7592   -1.2341 H   0  0  0  0  0  0
    2.7375    1.9343    0.9271 H   0  0  0  0  0  0
    1.7861   -1.8768   -1.4909 H   0  0  0  0  0  0
    0.0979   -2.0903   -1.6096 H   0  0  0  0  0  0
    0.6606    3.0326    0.4348 H   0  0  0  0  0  0
    0.5930    2.4421    2.0750 H   0  0  0  0  0  0
    0.0810    1.3086   -2.7638 H   0  0  0  0  0  0
    1.1764    0.0153   -3.2296 H   0  0  0  0  0  0
   -0.5251   -0.3166   -3.0030 H   0  0  0  0  0  0
    0.2627   -3.2253    0.2417 H   0  0  0  0  0  0
    0.0913   -1.7239    1.0545 H   0  0  0  0  0  0
    1.8720   -3.1250    1.9889 H   0  0  0  0  0  0
    2.6832   -3.2578    0.4607 H   0  0  0  0  0  0
    3.5205   -0.3985   -0.7537 H   0  0  0  0  0  0
    3.6521   -1.6889    2.2560 H   0  0  0  0  0  0
    3.6370   -1.0679    0.6566 H   0  0  0  0  0  0
   -1.9176   -1.0699   -1.3350 H   0  0  0  0  0  0
   -1.8174    2.4895    2.1188 H   0  0  0  0  0  0
   -3.9354    1.3244    1.6233 H   0  0  0  0  0  0
    4.1200    1.5486   -0.2589 H   0  0  0  0  0  0
   -5.4119   -1.9720   -1.1156 H   0  0  0  0  0  0
   -4.1284   -1.2333   -2.0656 H   0  0  0  0  0  0
   -3.7423   -2.4363   -0.8111 H   0  0  0  0  0  0
  1  7  1  0  0  0
  1 15  1  0  0  0
  2  4  1  0  0  0
  2 40  1  0  0  0
  3 18  1  0  0  0
  3 20  1  0  0  0
  4  6  1  0  0  0
  4 34  1  0  0  0
  5  6  1  0  0  0
  5  8  1  0  0  0
  5  9  1  0  0  0
  5 12  1  0  0  0
  6  7  1  0  0  0
  6 21  1  0  0  0
  7 10  1  0  0  0
  7 22  1  0  0  0
  8 13  1  0  0  0
  8 23  1  0  0  0
  8 24  1  0  0  0
  9 11  2  0  0  0
  9 16  1  0  0  0
 10 11  1  0  0  0
 10 25  1  0  0  0
 10 26  1  0  0  0
 11 17  1  0  0  0
 12 27  1  0  0  0
 12 28  1  0  0  0
 12 29  1  0  0  0
 13 14  1  0  0  0
 13 30  1  0  0  0
 13 31  1  0  0  0
 14 15  1  0  0  0
 14 32  1  0  0  0
 14 33  1  0  0  0
 15 35  1  0  0  0
 15 36  1  0  0  0
 16 18  2  0  0  0
 16 37  1  0  0  0
 17 19  2  0  0  0
 17 38  1  0  0  0
 18 19  1  0  0  0
 19 39  1  0  0  0
 20 41  1  0  0  0
 20 42  1  0  0  0
 20 43  1  0  0  0
M  END
> <LID>
L016170

> <PC_CID>
18791751

> <Names>


> <CAS_Numbers>


$$$$
18791752
                    3D
 Structure written by MMmdl.
 43 45  0  0  1  0            999 V2000
    2.3372    1.1914    1.5824 S   0  0  0  0  0  0
   -4.0807   -0.6817    0.4265 O   0  0  0  0  0  0
    0.7166   -0.5217   -1.0624 C   0  0  1  0  0  0
    1.8951    0.4914   -1.2230 C   0  0  1  0  0  0
    2.0027    1.6221   -0.1705 C   0  0  1  0  0  0
    1.1136   -1.7876   -0.2303 C   0  0  0  0  0  0
   -0.5335    0.1699   -0.4741 C   0  0  0  0  0  0
    0.6970    2.4214   -0.2309 C   0  0  0  0  0  0
   -0.5359    1.5402   -0.0907 C   0  0  0  0  0  0
    0.3585   -1.0167   -2.4888 C   0  0  0  0  0  0
    1.1303   -1.6831    1.3095 C   0  0  0  0  0  0
    2.5235   -1.5684    1.9570 C   0  0  0  0  0  0
    3.3454   -0.3154    1.6150 C   0  0  0  0  0  0
   -1.7213   -0.5830   -0.3024 C   0  0  0  0  0  0
   -1.7064    2.1197    0.4382 C   0  0  0  0  0  0
   -2.8968   -0.0024    0.2335 C   0  0  0  0  0  0
   -2.8743    1.3554    0.5985 C   0  0  0  0  0  0
   -4.1296   -2.0576    0.0781 C   0  0  0  0  0  0
    1.6667    1.0509   -2.1321 H   0  0  0  0  0  0
    2.8177    2.2851   -0.4639 H   0  0  0  0  0  0
    2.0446   -2.2285   -0.5858 H   0  0  0  0  0  0
    0.3748   -2.5591   -0.4509 H   0  0  0  0  0  0
    0.6233    2.9470   -1.1838 H   0  0  0  0  0  0
    0.6936    3.1934    0.5401 H   0  0  0  0  0  0
    0.0289   -0.1965   -3.1281 H   0  0  0  0  0  0
    1.2093   -1.4917   -2.9778 H   0  0  0  0  0  0
   -0.4463   -1.7521   -2.4844 H   0  0  0  0  0  0
    0.6881   -2.6003    1.7008 H   0  0  0  0  0  0
    0.4692   -0.8987    1.6747 H   0  0  0  0  0  0
    2.3802   -1.5900    3.0381 H   0  0  0  0  0  0
    3.1125   -2.4565    1.7253 H   0  0  0  0  0  0
    3.8561    0.6033   -1.8086 H   0  0  0  0  0  0
    3.5230   -0.6836   -0.8313 H   0  0  0  0  0  0
    4.0912   -0.1814    2.3991 H   0  0  0  0  0  0
    3.9281   -0.4389    0.7104 H   0  0  0  0  0  0
   -1.7157   -1.6228   -0.5872 H   0  0  0  0  0  0
   -1.7129    3.1605    0.7277 H   0  0  0  0  0  0
   -3.7618    1.8155    1.0078 H   0  0  0  0  0  0
   -5.1239   -2.4480    0.2941 H   0  0  0  0  0  0
   -3.9414   -2.2064   -0.9861 H   0  0  0  0  0  0
   -3.4133   -2.6415    0.6578 H   0  0  0  0  0  0
    3.1842   -0.1208   -1.5978 N   0  3  0  0  0  0
    3.0544   -0.7060   -2.4107 H   0  0  0  0  0  0
  1  5  1  0  0  0
  1 13  1  0  0  0
  2 16  1  0  0  0
  2 18  1  0  0  0
  3  4  1  0  0  0
  3  6  1  0  0  0
  3  7  1  0  0  0
  3 10  1  0  0  0
  4  5  1  0  0  0
  4 19  1  0  0  0
  4 42  1  0  0  0
  5  8  1  0  0  0
  5 20  1  0  0  0
  6 11  1  0  0  0
  6 21  1  0  0  0
  6 22  1  0  0  0
  7  9  2  0  0  0
  7 14  1  0  0  0
  8  9  1  0  0  0
  8 23  1  0  0  0
  8 24  1  0  0  0
  9 15  1  0  0  0
 10 25  1  0  0  0
 10 26  1  0  0  0
 10 27  1  0  0  0
 11 12  1  0  0  0
 11 28  1  0  0  0
 11 29  1  0  0  0
 12 13  1  0  0  0
 12 30  1  0  0  0
 12 31  1  0  0  0
 13 34  1  0  0  0
 13 35  1  0  0  0
 14 16  2  0  0  0
 14 36  1  0  0  0
 15 17  2  0  0  0
 15 37  1  0  0  0
 16 17  1  0  0  0
 17 38  1  0  0  0
 18 39  1  0  0  0
 18 40  1  0  0  0
 18 41  1  0  0  0
 32 42  1  0  0  0
 33 42  1  0  0  0
 42 43  1  0  0  0
M  CHG  1  42   1
M  END
> <LID>
L016171

> <PC_CID>
18791752

> <Names>


> <CAS_Numbers>


$$$$
5284595
                    3D
 Structure written by MMmdl.
 45 49  0  0  1  0            999 V2000
   -2.3307   -0.0999    1.3889 O   0  0  0  0  0  0
   -3.5486   -2.2991    0.4337 O   0  0  0  0  0  0
   -3.6945    2.4431    0.7662 O   0  0  0  0  0  0
   -0.1396   -0.6529    0.6099 C   0  0  1  0  0  0
    0.5507   -1.4774   -0.4906 C   0  0  2  0  0  0
    1.6981   -0.6092   -1.0622 C   0  0  1  0  0  0
   -1.4651   -1.2402    1.2069 C   0  0  2  0  0  0
    0.8940   -0.3873    1.7302 C   0  0  0  0  0  0
   -0.6322    0.6418    0.0250 C   0  0  0  0  0  0
    1.1879    0.7333   -1.6659 C   0  0  0  0  0  0
    2.1718    0.2987    1.2107 C   0  0  0  0  0  0
    0.0006    1.4021   -0.9727 C   0  0  0  0  0  0
   -2.1413   -2.3194    0.3095 C   0  0  2  0  0  0
   -0.4666   -1.9475   -1.5146 C   0  0  0  0  0  0
   -1.8625    0.9019    0.5922 C   0  0  0  0  0  0
   -1.7063   -2.3067   -1.1467 C   0  0  0  0  0  0
    4.0036    0.1555   -0.4653 C   0  0  0  0  0  0
   -0.6405    2.6075   -1.3287 C   0  0  0  0  0  0
   -2.4845    2.1139    0.2303 C   0  0  0  0  0  0
   -1.8618    2.9724   -0.7093 C   0  0  0  0  0  0
    5.1339   -0.1922    0.4831 C   0  0  0  0  0  0
    5.8718    0.7098    1.1477 C   0  0  0  0  0  0
    0.9761   -2.3858   -0.0603 H   0  0  0  0  0  0
    2.1936   -1.1744   -1.8530 H   0  0  0  0  0  0
   -1.2882   -1.6813    2.1889 H   0  0  0  0  0  0
    1.1673   -1.3349    2.1966 H   0  0  0  0  0  0
    0.4517    0.2206    2.5208 H   0  0  0  0  0  0
    0.8522    0.5320   -2.6837 H   0  0  0  0  0  0
    1.9909    1.4612   -1.7735 H   0  0  0  0  0  0
    1.9745    1.3440    0.9706 H   0  0  0  0  0  0
    2.9157    0.3085    2.0076 H   0  0  0  0  0  0
   -1.8278   -3.2962    0.6797 H   0  0  0  0  0  0
   -0.1670   -1.9859   -2.5518 H   0  0  0  0  0  0
   -2.4160   -2.6505   -1.8852 H   0  0  0  0  0  0
    4.2577   -0.2627   -1.4400 H   0  0  0  0  0  0
    3.9331    1.2372   -0.5883 H   0  0  0  0  0  0
   -0.2196    3.2369   -2.0989 H   0  0  0  0  0  0
   -2.3475    3.8942   -0.9942 H   0  0  0  0  0  0
   -3.7715   -2.3661    1.3497 H   0  0  0  0  0  0
    5.3425   -1.2438    0.6183 H   0  0  0  0  0  0
   -4.0185    1.7793    1.3561 H   0  0  0  0  0  0
    6.6655    0.3972    1.8105 H   0  0  0  0  0  0
    5.6958    1.7704    1.0407 H   0  0  0  0  0  0
    2.7143   -0.4034    0.0159 N   0  3  2  0  0  0
    2.9396   -1.3364    0.3301 H   0  0  0  0  0  0
  1  7  1  0  0  0
  1 15  1  0  0  0
  2 13  1  0  0  0
  2 39  1  0  0  0
  3 19  1  0  0  0
  3 41  1  0  0  0
  4  5  1  0  0  0
  4  7  1  0  0  0
  4  8  1  0  0  0
  4  9  1  0  0  0
  5  6  1  0  0  0
  5 14  1  0  0  0
  5 23  1  0  0  0
  6 10  1  0  0  0
  6 24  1  0  0  0
  6 44  1  0  0  0
  7 13  1  0  0  0
  7 25  1  0  0  0
  8 11  1  0  0  0
  8 26  1  0  0  0
  8 27  1  0  0  0
  9 12  2  0  0  0
  9 15  1  0  0  0
 10 12  1  0  0  0
 10 28  1  0  0  0
 10 29  1  0  0  0
 11 30  1  0  0  0
 11 31  1  0  0  0
 11 44  1  0  0  0
 12 18  1  0  0  0
 13 16  1  0  0  0
 13 32  1  0  0  0
 14 16  2  0  0  0
 14 33  1  0  0  0
 15 19  2  0  0  0
 16 34  1  0  0  0
 17 21  1  0  0  0
 17 35  1  0  0  0
 17 36  1  0  0  0
 17 44  1  0  0  0
 18 20  2  0  0  0
 18 37  1  0  0  0
 19 20  1  0  0  0
 20 38  1  0  0  0
 21 22  2  0  0  0
 21 40  1  0  0  0
 22 42  1  0  0  0
 22 43  1  0  0  0
 44 45  1  0  0  0
M  CHG  1  44   1
M  END
> <LID>
L000967

> <PC_CID>
5284595

> <Names>
Nalorphine

> <CAS_Numbers>
1041-90-3;57-29-4;62-67-9;97889-94-6

$$$$
18791754
                    3D
 Structure written by MMmdl.
 40 42  0  0  1  0            999 V2000
    1.6882    0.1035    2.1197 S   0  0  0  0  0  0
    3.7037    1.6612   -1.1222 O   0  0  0  0  0  0
   -4.4051   -1.0921   -0.3658 O   0  0  0  0  0  0
    2.8441    0.5008   -1.2347 N   0  0  0  0  0  0
    0.3918   -0.1163   -1.1488 C   0  0  1  0  0  0
    1.5293    0.8639   -0.7061 C   0  0  1  0  0  0
    1.4890    1.3375    0.7756 C   0  0  1  0  0  0
    0.7922   -1.6260   -1.0174 C   0  0  0  0  0  0
   -0.9289    0.1815   -0.4035 C   0  0  0  0  0  0
    0.1563    2.0635    0.9752 C   0  0  0  0  0  0
   -1.0347    1.2035    0.5820 C   0  0  0  0  0  0
    0.1454    0.1544   -2.6562 C   0  0  0  0  0  0
    0.7112   -2.2946    0.3715 C   0  0  0  0  0  0
    2.0514   -2.4746    1.1110 C   0  0  0  0  0  0
    2.8006   -1.1950    1.5176 C   0  0  0  0  0  0
   -2.0823   -0.5823   -0.7082 C   0  0  0  0  0  0
   -2.2670    1.4400    1.2271 C   0  0  0  0  0  0
   -3.3072   -0.3428   -0.0576 C   0  0  0  0  0  0
   -3.4002    0.6707    0.9109 C   0  0  0  0  0  0
    1.3086    1.7840   -1.2511 H   0  0  0  0  0  0
    2.2784    2.0691    0.9446 H   0  0  0  0  0  0
    1.7610   -1.8290   -1.4734 H   0  0  0  0  0  0
    0.1026   -2.1934   -1.6432 H   0  0  0  0  0  0
    0.1293    2.9708    0.3705 H   0  0  0  0  0  0
    0.0574    2.3864    2.0126 H   0  0  0  0  0  0
   -0.1758    1.1819   -2.8316 H   0  0  0  0  0  0
    1.0471   -0.0106   -3.2468 H   0  0  0  0  0  0
   -0.6249   -0.4930   -3.0753 H   0  0  0  0  0  0
    0.3116   -3.2984    0.2219 H   0  0  0  0  0  0
   -0.0247   -1.8141    1.0143 H   0  0  0  0  0  0
    1.8446   -3.0426    2.0188 H   0  0  0  0  0  0
    2.7168   -3.1050    0.5202 H   0  0  0  0  0  0
    3.3290   -0.1946   -0.6857 H   0  0  0  0  0  0
    3.4711   -1.4465    2.3397 H   0  0  0  0  0  0
    3.4594   -0.8370    0.7359 H   0  0  0  0  0  0
   -2.0327   -1.3656   -1.4494 H   0  0  0  0  0  0
   -2.3474    2.2165    1.9738 H   0  0  0  0  0  0
   -4.3381    0.8593    1.4124 H   0  0  0  0  0  0
    3.7329    1.8014   -0.1878 H   0  0  0  0  0  0
   -4.2362   -1.7449   -1.0275 H   0  0  0  0  0  0
  1  7  1  0  0  0
  1 15  1  0  0  0
  2  4  1  0  0  0
  2 39  1  0  0  0
  3 18  1  0  0  0
  3 40  1  0  0  0
  4  6  1  0  0  0
  4 33  1  0  0  0
  5  6  1  0  0  0
  5  8  1  0  0  0
  5  9  1  0  0  0
  5 12  1  0  0  0
  6  7  1  0  0  0
  6 20  1  0  0  0
  7 10  1  0  0  0
  7 21  1  0  0  0
  8 13  1  0  0  0
  8 22  1  0  0  0
  8 23  1  0  0  0
  9 11  2  0  0  0
  9 16  1  0  0  0
 10 11  1  0  0  0
 10 24  1  0  0  0
 10 25  1  0  0  0
 11 17  1  0  0  0
 12 26  1  0  0  0
 12 27  1  0  0  0
 12 28  1  0  0  0
 13 14  1  0  0  0
 13 29  1  0  0  0
 13 30  1  0  0  0
 14 15  1  0  0  0
 14 31  1  0  0  0
 14 32  1  0  0  0
 15 34  1  0  0  0
 15 35  1  0  0  0
 16 18  2  0  0  0
 16 36  1  0  0  0
 17 19  2  0  0  0
 17 37  1  0  0  0
 18 19  1  0  0  0
 19 38  1  0  0  0
M  END
> <LID>
L016175

> <PC_CID>
18791754

> <Names>


> <CAS_Numbers>


$$$$
3505
                    3D
 Structure written by MMmdl.
 53 55  0  0  1  0            999 V2000
   -4.9861   -3.1659    2.4173 Cl  0  0  0  0  0  0
   -7.1664   -0.8943    1.9112 Cl  0  0  0  0  0  0
   -1.0612    0.5053    0.7002 O   0  0  0  0  0  0
    4.1948   -2.2078    0.8986 O   0  0  0  0  0  0
    3.2452   -3.8557   -0.3447 O   0  0  0  0  0  0
    0.4731   -0.0656   -0.8619 N   0  0  0  0  0  0
    2.7554   -1.6023   -0.7481 N   0  0  0  0  0  0
    1.6018    0.5341   -0.1155 C   0  0  2  0  0  0
    1.6393    2.0661   -0.3362 C   0  0  0  0  0  0
    2.9461   -0.1734   -0.4387 C   0  0  0  0  0  0
    2.1728    4.0755    1.0477 C   0  0  0  0  0  0
    3.9639    2.9719   -0.0511 C   0  0  0  0  0  0
    3.4179    4.9685    1.1547 C   0  0  0  0  0  0
    4.5943    4.0573    0.8140 C   0  0  0  0  0  0
    0.8651   -0.7126   -2.1227 C   0  0  0  0  0  0
    1.8189   -1.8896   -1.8425 C   0  0  0  0  0  0
   -0.7866   -0.0691   -0.3558 C   0  0  0  0  0  0
    3.3904   -2.6602   -0.0830 C   0  0  0  0  0  0
   -1.8997   -0.8157   -1.1168 C   0  0  0  0  0  0
   -3.2177   -0.8408   -0.3560 C   0  0  0  0  0  0
   -3.4801   -1.8687    0.5743 C   0  0  0  0  0  0
   -4.1856    0.1610   -0.5782 C   0  0  0  0  0  0
    4.9264   -3.1279    1.6910 C   0  0  0  0  0  0
   -4.6980   -1.8954    1.2824 C   0  0  0  0  0  0
   -5.4036    0.1361    0.1277 C   0  0  0  0  0  0
   -5.6637   -0.8891    1.0584 C   0  0  0  0  0  0
    1.4278    0.3509    0.9470 H   0  0  0  0  0  0
    1.8184    2.3068   -1.3851 H   0  0  0  0  0  0
    0.6477    2.4604   -0.1095 H   0  0  0  0  0  0
    3.6501    0.0139    0.3706 H   0  0  0  0  0  0
    3.3968    0.2780   -1.3238 H   0  0  0  0  0  0
    1.6832    3.9452    2.0134 H   0  0  0  0  0  0
    1.4530    4.5396    0.3712 H   0  0  0  0  0  0
    3.8694    3.3322   -1.0769 H   0  0  0  0  0  0
    4.5689    2.0667   -0.0662 H   0  0  0  0  0  0
    3.3534    5.7790    0.4273 H   0  0  0  0  0  0
    3.5228    5.4202    2.1418 H   0  0  0  0  0  0
    4.9960    3.6150    1.7269 H   0  0  0  0  0  0
    5.4065    4.5827    0.3105 H   0  0  0  0  0  0
    0.0349   -1.0463   -2.7430 H   0  0  0  0  0  0
    1.3800    0.0333   -2.7301 H   0  0  0  0  0  0
    1.2146   -2.7599   -1.5794 H   0  0  0  0  0  0
    2.3732   -2.1531   -2.7440 H   0  0  0  0  0  0
   -2.0582   -0.3407   -2.0857 H   0  0  0  0  0  0
   -1.5884   -1.8442   -1.3050 H   0  0  0  0  0  0
   -2.7432   -2.6388    0.7502 H   0  0  0  0  0  0
   -3.9955    0.9532   -1.2875 H   0  0  0  0  0  0
    5.5197   -2.5901    2.4304 H   0  0  0  0  0  0
    4.2551   -3.8052    2.2204 H   0  0  0  0  0  0
    5.6049   -3.7188    1.0745 H   0  0  0  0  0  0
   -6.1401    0.9070   -0.0455 H   0  0  0  0  0  0
    2.6238    2.7587    0.5360 N   0  3  0  0  0  0
    2.7555    2.1836    1.3560 H   0  0  0  0  0  0
  1 24  1  0  0  0
  2 26  1  0  0  0
  3 17  2  0  0  0
  4 18  1  0  0  0
  4 23  1  0  0  0
  5 18  2  0  0  0
  6  8  1  0  0  0
  6 15  1  0  0  0
  6 17  1  0  0  0
  7 10  1  0  0  0
  7 16  1  0  0  0
  7 18  1  0  0  0
  8  9  1  0  0  0
  8 10  1  0  0  0
  8 27  1  0  0  0
  9 28  1  0  0  0
  9 29  1  0  0  0
  9 52  1  0  0  0
 10 30  1  0  0  0
 10 31  1  0  0  0
 11 13  1  0  0  0
 11 32  1  0  0  0
 11 33  1  0  0  0
 11 52  1  0  0  0
 12 14  1  0  0  0
 12 34  1  0  0  0
 12 35  1  0  0  0
 12 52  1  0  0  0
 13 14  1  0  0  0
 13 36  1  0  0  0
 13 37  1  0  0  0
 14 38  1  0  0  0
 14 39  1  0  0  0
 15 16  1  0  0  0
 15 40  1  0  0  0
 15 41  1  0  0  0
 16 42  1  0  0  0
 16 43  1  0  0  0
 17 19  1  0  0  0
 19 20  1  0  0  0
 19 44  1  0  0  0
 19 45  1  0  0  0
 20 21  2  0  0  0
 20 22  1  0  0  0
 21 24  1  0  0  0
 21 46  1  0  0  0
 22 25  2  0  0  0
 22 47  1  0  0  0
 23 48  1  0  0  0
 23 49  1  0  0  0
 23 50  1  0  0  0
 24 26  2  0  0  0
 25 26  1  0  0  0
 25 51  1  0  0  0
 52 53  1  0  0  0
M  CHG  1  52   1
M  END
> <LID>
L024028

> <PC_CID>
3505

> <Names>
methyl4-[2-(3,4-dichlorophenyl)ethanoyl]-3-(pyrrolidin-1-ylmethyl)piperazine-1-carboxylate

> <CAS_Numbers>


$$$$
10098251
                    3D
 Structure written by MMmdl.
 73 77  0  0  1  0            999 V2000
    2.7633    1.6103   -1.3172 O   0  0  0  0  0  0
    7.5028    3.6059   -1.0656 O   0  0  0  0  0  0
    3.7984   -1.5262   -0.0081 N   0  0  0  0  0  0
    4.6676    0.5177   -0.7128 N   0  0  0  0  0  0
   -4.7528   -0.4167   -2.8932 N   0  0  0  0  0  0
    2.6689   -0.6768   -0.4427 C   0  0  0  0  0  0
    1.9097   -1.2879   -1.6573 C   0  0  0  0  0  0
    1.6891   -0.3655    0.7270 C   0  0  0  0  0  0
    0.5943   -0.5602   -1.9994 C   0  0  0  0  0  0
    0.3847    0.3232    0.2799 C   0  0  0  0  0  0
    3.3541    0.6222   -0.8813 C   0  0  0  0  0  0
    5.0469   -0.7718   -0.1782 C   0  0  0  0  0  0
   -1.6248    0.1031   -1.1525 C   0  0  0  0  0  0
    3.7909   -2.8046    0.4859 C   0  0  0  0  0  0
    5.6675    1.5484   -0.9748 C   0  0  0  0  0  0
   -2.7115   -0.3289   -0.1395 C   0  0  0  0  0  0
   -4.1361    0.2324   -0.4123 C   0  0  0  0  0  0
    5.7709    2.5364    0.2059 C   0  0  0  0  0  0
    5.0112   -3.4378    0.8456 C   0  0  0  0  0  0
    2.5988   -3.5550    0.6646 C   0  0  0  0  0  0
   -5.1091   -0.4173    0.5856 C   0  0  0  0  0  0
   -4.2366    1.7659   -0.2888 C   0  0  0  0  0  0
    5.0396   -4.7498    1.3560 C   0  0  0  0  0  0
    2.6239   -4.8673    1.1749 C   0  0  0  0  0  0
    6.8532    3.6035    0.0039 C   0  0  0  0  0  0
   -4.4846   -0.1319   -1.8033 C   0  0  0  0  0  0
    3.8447   -5.4683    1.5220 C   0  0  0  0  0  0
   -5.0792   -0.0320    1.9473 C   0  0  0  0  0  0
   -5.3438    2.4327   -0.8663 C   0  0  0  0  0  0
   -6.0310   -1.4170    0.1876 C   0  0  0  0  0  0
   -3.2810    2.5391    0.4177 C   0  0  0  0  0  0
   -5.9533   -0.6166    2.8835 C   0  0  0  0  0  0
   -5.4821    3.8300   -0.7641 C   0  0  0  0  0  0
   -6.9053   -2.0021    1.1241 C   0  0  0  0  0  0
   -3.4185    3.9368    0.5197 C   0  0  0  0  0  0
   -6.8688   -1.6016    2.4720 C   0  0  0  0  0  0
   -4.5171    4.5843   -0.0734 C   0  0  0  0  0  0
    2.5549   -1.2846   -2.5376 H   0  0  0  0  0  0
    1.6753   -2.3368   -1.5020 H   0  0  0  0  0  0
    1.4170   -1.2615    1.2771 H   0  0  0  0  0  0
    2.1852    0.2642    1.4678 H   0  0  0  0  0  0
    0.7842    0.4274   -2.4204 H   0  0  0  0  0  0
    0.0810   -1.1272   -2.7771 H   0  0  0  0  0  0
    0.5715    1.3460   -0.0476 H   0  0  0  0  0  0
   -0.2721    0.4043    1.1449 H   0  0  0  0  0  0
    5.5579   -0.6380    0.7766 H   0  0  0  0  0  0
    5.7168   -1.2765   -0.8762 H   0  0  0  0  0  0
   -1.5654    1.1875   -1.2470 H   0  0  0  0  0  0
   -1.9098   -0.2668   -2.1377 H   0  0  0  0  0  0
    6.6308    1.0671   -1.1515 H   0  0  0  0  0  0
    5.4127    2.0769   -1.8953 H   0  0  0  0  0  0
   -2.7657   -1.4185   -0.1691 H   0  0  0  0  0  0
   -2.4116   -0.0956    0.8807 H   0  0  0  0  0  0
    4.8163    3.0410    0.3588 H   0  0  0  0  0  0
    5.9936    1.9953    1.1262 H   0  0  0  0  0  0
    5.9609   -2.9363    0.7408 H   0  0  0  0  0  0
    1.6293   -3.1583    0.4205 H   0  0  0  0  0  0
    5.9829   -5.2047    1.6207 H   0  0  0  0  0  0
    1.7009   -5.4143    1.3001 H   0  0  0  0  0  0
    3.8645   -6.4749    1.9134 H   0  0  0  0  0  0
   -4.3811    0.7189    2.2860 H   0  0  0  0  0  0
   -6.1040    1.8728   -1.3913 H   0  0  0  0  0  0
   -6.0859   -1.7567   -0.8353 H   0  0  0  0  0  0
   -2.4304    2.0823    0.8978 H   0  0  0  0  0  0
   -5.9200   -0.3093    3.9184 H   0  0  0  0  0  0
   -6.3318    4.3226   -1.2135 H   0  0  0  0  0  0
   -7.6048   -2.7615    0.8069 H   0  0  0  0  0  0
   -2.6807    4.5133    1.0583 H   0  0  0  0  0  0
   -7.5398   -2.0512    3.1892 H   0  0  0  0  0  0
   -4.6226    5.6563    0.0068 H   0  0  0  0  0  0
    7.0114    4.4128    0.9433 O   0  5  0  0  0  0
   -0.2846   -0.4373   -0.8082 N   0  3  0  0  0  0
   -0.4324   -1.3776   -0.4699 H   0  0  0  0  0  0
  1 11  2  0  0  0
  2 25  2  0  0  0
  3  6  1  0  0  0
  3 12  1  0  0  0
  3 14  1  0  0  0
  4 11  1  0  0  0
  4 12  1  0  0  0
  4 15  1  0  0  0
  5 26  3  0  0  0
  6  7  1  0  0  0
  6  8  1  0  0  0
  6 11  1  0  0  0
  7  9  1  0  0  0
  7 38  1  0  0  0
  7 39  1  0  0  0
  8 10  1  0  0  0
  8 40  1  0  0  0
  8 41  1  0  0  0
  9 42  1  0  0  0
  9 43  1  0  0  0
  9 72  1  0  0  0
 10 44  1  0  0  0
 10 45  1  0  0  0
 10 72  1  0  0  0
 12 46  1  0  0  0
 12 47  1  0  0  0
 13 16  1  0  0  0
 13 48  1  0  0  0
 13 49  1  0  0  0
 13 72  1  0  0  0
 14 19  2  0  0  0
 14 20  1  0  0  0
 15 18  1  0  0  0
 15 50  1  0  0  0
 15 51  1  0  0  0
 16 17  1  0  0  0
 16 52  1  0  0  0
 16 53  1  0  0  0
 17 21  1  0  0  0
 17 22  1  0  0  0
 17 26  1  0  0  0
 18 25  1  0  0  0
 18 54  1  0  0  0
 18 55  1  0  0  0
 19 23  1  0  0  0
 19 56  1  0  0  0
 20 24  2  0  0  0
 20 57  1  0  0  0
 21 28  2  0  0  0
 21 30  1  0  0  0
 22 29  2  0  0  0
 22 31  1  0  0  0
 23 27  2  0  0  0
 23 58  1  0  0  0
 24 27  1  0  0  0
 24 59  1  0  0  0
 25 71  1  0  0  0
 27 60  1  0  0  0
 28 32  1  0  0  0
 28 61  1  0  0  0
 29 33  1  0  0  0
 29 62  1  0  0  0
 30 34  2  0  0  0
 30 63  1  0  0  0
 31 35  2  0  0  0
 31 64  1  0  0  0
 32 36  2  0  0  0
 32 65  1  0  0  0
 33 37  2  0  0  0
 33 66  1  0  0  0
 34 36  1  0  0  0
 34 67  1  0  0  0
 35 37  1  0  0  0
 35 68  1  0  0  0
 36 69  1  0  0  0
 37 70  1  0  0  0
 72 73  1  0  0  0
M  CHG  2  71  -1  72   1
M  END
> <LID>
L022596

> <PC_CID>
10098251

> <Names>


> <CAS_Numbers>


$$$$
4058
                    3D
 Structure written by MMmdl.
 40 41  0  0  1  0            999 V2000
   -1.8350   -1.5555   -0.5299 O   0  0  0  0  0  0
   -1.4322   -2.0216    1.6735 O   0  0  0  0  0  0
    0.1996   -0.6962    0.4390 C   0  0  0  0  0  0
    1.0907   -1.4186   -0.6163 C   0  0  0  0  0  0
    1.0328   -0.7413    1.7558 C   0  0  0  0  0  0
    2.4954   -0.7936   -0.7547 C   0  0  0  0  0  0
    2.4142   -0.0819    1.5980 C   0  0  0  0  0  0
   -0.1824    0.7538    0.0535 C   0  0  0  0  0  0
   -1.1102   -1.5007    0.6038 C   0  0  0  0  0  0
    4.5774   -0.2305    0.4324 C   0  0  0  0  0  0
   -0.6784    1.6438    1.0394 C   0  0  0  0  0  0
   -0.1028    1.2236   -1.2827 C   0  0  0  0  0  0
   -1.0463    2.9626    0.7114 C   0  0  0  0  0  0
   -0.4699    2.5425   -1.6117 C   0  0  0  0  0  0
   -0.9375    3.4158   -0.6145 C   0  0  0  0  0  0
   -3.0731   -2.2456   -0.5416 C   0  0  0  0  0  0
   -3.6992   -2.1302   -1.9333 C   0  0  0  0  0  0
    0.6071   -1.4663   -1.5920 H   0  0  0  0  0  0
    1.2176   -2.4628   -0.3234 H   0  0  0  0  0  0
    1.1898   -1.7788    2.0577 H   0  0  0  0  0  0
    0.5039   -0.2864    2.5923 H   0  0  0  0  0  0
    3.0792   -1.3751   -1.4693 H   0  0  0  0  0  0
    2.4366    0.2189   -1.1543 H   0  0  0  0  0  0
    2.3115    0.9771    1.3559 H   0  0  0  0  0  0
    2.9511   -0.1372    2.5458 H   0  0  0  0  0  0
    5.0977   -0.2937    1.3887 H   0  0  0  0  0  0
    5.1543   -0.7997   -0.2973 H   0  0  0  0  0  0
    4.5645    0.8142    0.1185 H   0  0  0  0  0  0
   -0.7986    1.3264    2.0634 H   0  0  0  0  0  0
    0.2349    0.5889   -2.0859 H   0  0  0  0  0  0
   -1.4190    3.6252    1.4786 H   0  0  0  0  0  0
   -0.3972    2.8830   -2.6342 H   0  0  0  0  0  0
   -1.2216    4.4267   -0.8677 H   0  0  0  0  0  0
   -2.9156   -3.2942   -0.2858 H   0  0  0  0  0  0
   -3.7428   -1.8194    0.2067 H   0  0  0  0  0  0
   -4.6554   -2.6519   -1.9726 H   0  0  0  0  0  0
   -3.8758   -1.0874   -2.1983 H   0  0  0  0  0  0
   -3.0494   -2.5652   -2.6931 H   0  0  0  0  0  0
    3.2042   -0.7678    0.5476 N   0  3  0  0  0  0
    3.2972   -1.7297    0.8425 H   0  0  0  0  0  0
  1  9  1  0  0  0
  1 16  1  0  0  0
  2  9  2  0  0  0
  3  4  1  0  0  0
  3  5  1  0  0  0
  3  8  1  0  0  0
  3  9  1  0  0  0
  4  6  1  0  0  0
  4 18  1  0  0  0
  4 19  1  0  0  0
  5  7  1  0  0  0
  5 20  1  0  0  0
  5 21  1  0  0  0
  6 22  1  0  0  0
  6 23  1  0  0  0
  6 39  1  0  0  0
  7 24  1  0  0  0
  7 25  1  0  0  0
  7 39  1  0  0  0
  8 11  2  0  0  0
  8 12  1  0  0  0
 10 26  1  0  0  0
 10 27  1  0  0  0
 10 28  1  0  0  0
 10 39  1  0  0  0
 11 13  1  0  0  0
 11 29  1  0  0  0
 12 14  2  0  0  0
 12 30  1  0  0  0
 13 15  2  0  0  0
 13 31  1  0  0  0
 14 15  1  0  0  0
 14 32  1  0  0  0
 15 33  1  0  0  0
 16 17  1  0  0  0
 16 34  1  0  0  0
 16 35  1  0  0  0
 17 36  1  0  0  0
 17 37  1  0  0  0
 17 38  1  0  0  0
 39 40  1  0  0  0
M  CHG  1  39   1
M  END
> <LID>
L013412

> <PC_CID>
4058

> <Names>
Meperidine;Phenoperidine

> <CAS_Numbers>
50-13-5;57-42-1

$$$$
44212445
                    3D
 Structure written by MMmdl.
 58 63  0  0  1  0            999 V2000
    1.2050    1.8514    0.8341 O   0  0  0  0  0  0
    3.8880    3.3040    0.2590 O   0  0  0  0  0  0
   -2.4530   -0.6488    0.8319 O   0  0  0  0  0  0
   -2.1224    1.1940   -0.4675 N   0  0  0  0  0  0
   -6.2600    2.0379   -0.1417 N   0  0  0  0  0  0
    0.9365   -0.4817    0.5110 C   0  0  1  0  0  0
    0.3542   -1.5257   -0.4622 C   0  0  2  0  0  0
    0.1685    0.8696    0.6455 C   0  0  2  0  0  0
    1.3843   -2.6782   -0.5524 C   0  0  1  0  0  0
    1.0696   -1.1498    1.9032 C   0  0  0  0  0  0
    2.2775   -0.0113    0.0331 C   0  0  0  0  0  0
   -0.0993   -0.9619   -1.8320 C   0  0  0  0  0  0
   -0.6629    1.2573   -0.6128 C   0  0  1  0  0  0
   -0.1836    0.5740   -1.9098 C   0  0  0  0  0  0
    2.7729   -2.1888   -1.0674 C   0  0  0  0  0  0
    1.9146   -2.4369    1.8702 C   0  0  0  0  0  0
    3.2308   -0.7940   -0.6355 C   0  0  0  0  0  0
    2.3677    1.3373    0.3284 C   0  0  0  0  0  0
    2.1654   -4.6452    0.7857 C   0  0  0  0  0  0
    4.4415   -0.1456   -0.9459 C   0  0  0  0  0  0
    3.6013    1.9758    0.0222 C   0  0  0  0  0  0
    4.6257    1.2145   -0.5977 C   0  0  0  0  0  0
   -2.8882    0.3075    0.1938 C   0  0  0  0  0  0
   -4.3687    0.5152    0.0602 C   0  0  0  0  0  0
    2.9187    4.1078    0.9128 C   0  0  0  0  0  0
   -5.2516   -0.5867    0.0803 C   0  0  0  0  0  0
   -4.9333    1.8083   -0.0412 C   0  0  0  0  0  0
   -6.6367   -0.3558   -0.0233 C   0  0  0  0  0  0
   -7.0889    0.9731   -0.1342 C   0  0  0  0  0  0
   -0.5441   -1.9437   -0.0108 H   0  0  0  0  0  0
   -0.4595    0.8912    1.5366 H   0  0  0  0  0  0
    1.0044   -3.4299   -1.2462 H   0  0  0  0  0  0
    0.0745   -1.3920    2.2798 H   0  0  0  0  0  0
    1.4998   -0.4521    2.6232 H   0  0  0  0  0  0
   -1.0807   -1.3780   -2.0635 H   0  0  0  0  0  0
    0.5529   -1.3118   -2.6321 H   0  0  0  0  0  0
   -0.5020    2.3258   -0.7629 H   0  0  0  0  0  0
    0.8086    0.9584   -2.1492 H   0  0  0  0  0  0
   -0.8122    0.8682   -2.7511 H   0  0  0  0  0  0
    2.7337   -2.1568   -2.1564 H   0  0  0  0  0  0
    3.5633   -2.9022   -0.8398 H   0  0  0  0  0  0
    2.9717   -2.2005    1.7436 H   0  0  0  0  0  0
    1.8302   -2.9492    2.8293 H   0  0  0  0  0  0
   -2.6221    1.9176   -0.9632 H   0  0  0  0  0  0
    2.0012   -5.1593    1.7332 H   0  0  0  0  0  0
    1.7905   -5.2922   -0.0080 H   0  0  0  0  0  0
    3.2412   -4.5282    0.6562 H   0  0  0  0  0  0
    5.2211   -0.6774   -1.4715 H   0  0  0  0  0  0
    5.5607    1.6955   -0.8451 H   0  0  0  0  0  0
    3.3261    5.1073    1.0640 H   0  0  0  0  0  0
    2.0156    4.2108    0.3102 H   0  0  0  0  0  0
    2.6614    3.7071    1.8941 H   0  0  0  0  0  0
   -4.8791   -1.5971    0.1694 H   0  0  0  0  0  0
   -4.3101    2.6908   -0.0396 H   0  0  0  0  0  0
   -7.3367   -1.1782   -0.0162 H   0  0  0  0  0  0
   -8.1445    1.1865   -0.2153 H   0  0  0  0  0  0
    1.4617   -3.3418    0.7845 N   0  3  2  0  0  0
    0.5034   -3.5675    1.0115 H   0  0  0  0  0  0
  1  8  1  0  0  0
  1 18  1  0  0  0
  2 21  1  0  0  0
  2 25  1  0  0  0
  3 23  2  0  0  0
  4 13  1  0  0  0
  4 23  1  0  0  0
  4 44  1  0  0  0
  5 27  1  0  0  0
  5 29  2  0  0  0
  6  7  1  0  0  0
  6  8  1  0  0  0
  6 10  1  0  0  0
  6 11  1  0  0  0
  7  9  1  0  0  0
  7 12  1  0  0  0
  7 30  1  0  0  0
  8 13  1  0  0  0
  8 31  1  0  0  0
  9 15  1  0  0  0
  9 32  1  0  0  0
  9 57  1  0  0  0
 10 16  1  0  0  0
 10 33  1  0  0  0
 10 34  1  0  0  0
 11 17  2  0  0  0
 11 18  1  0  0  0
 12 14  1  0  0  0
 12 35  1  0  0  0
 12 36  1  0  0  0
 13 14  1  0  0  0
 13 37  1  0  0  0
 14 38  1  0  0  0
 14 39  1  0  0  0
 15 17  1  0  0  0
 15 40  1  0  0  0
 15 41  1  0  0  0
 16 42  1  0  0  0
 16 43  1  0  0  0
 16 57  1  0  0  0
 17 20  1  0  0  0
 18 21  2  0  0  0
 19 45  1  0  0  0
 19 46  1  0  0  0
 19 47  1  0  0  0
 19 57  1  0  0  0
 20 22  2  0  0  0
 20 48  1  0  0  0
 21 22  1  0  0  0
 22 49  1  0  0  0
 23 24  1  0  0  0
 24 26  1  0  0  0
 24 27  2  0  0  0
 25 50  1  0  0  0
 25 51  1  0  0  0
 25 52  1  0  0  0
 26 28  2  0  0  0
 26 53  1  0  0  0
 27 54  1  0  0  0
 28 29  1  0  0  0
 28 55  1  0  0  0
 29 56  1  0  0  0
 57 58  1  0  0  0
M  CHG  1  57   1
M  END
> <LID>
L012402

> <PC_CID>
44212445

> <Names>


> <CAS_Numbers>


$$$$
44212444
                    3D
 Structure written by MMmdl.
 55 60  0  0  1  0            999 V2000
    1.1015    2.1118    0.9759 O   0  0  0  0  0  0
    3.5017    3.7944    0.5673 O   0  0  0  0  0  0
   -2.2656   -0.7478    0.8716 O   0  0  0  0  0  0
   -2.1245    1.1287   -0.4156 N   0  0  0  0  0  0
   -6.3422    1.4547   -0.2173 N   0  0  0  0  0  0
    1.0654   -0.2368    0.5727 C   0  0  1  0  0  0
    0.6161   -1.2848   -0.4645 C   0  0  2  0  0  0
    0.1706    1.0353    0.7389 C   0  0  2  0  0  0
    1.7531   -2.3327   -0.5650 C   0  0  1  0  0  0
    1.2206   -0.9507    1.9396 C   0  0  0  0  0  0
    2.3684    0.3727    0.1551 C   0  0  0  0  0  0
    0.1605   -0.7019   -1.8256 C   0  0  0  0  0  0
   -0.6808    1.3767   -0.5193 C   0  0  1  0  0  0
   -0.0964    0.8171   -1.8322 C   0  0  0  0  0  0
    3.1094   -1.6976   -1.0058 C   0  0  0  0  0  0
    2.1814   -2.1528    1.8821 C   0  0  0  0  0  0
    3.4164   -0.2829   -0.5097 C   0  0  0  0  0  0
    2.3140    1.7094    0.4939 C   0  0  0  0  0  0
    2.6639   -4.2808    0.7177 C   0  0  0  0  0  0
    4.5652    0.4974   -0.7594 C   0  0  0  0  0  0
    3.4746    2.4696    0.2450 C   0  0  0  0  0  0
    4.6003    1.8582   -0.3622 C   0  0  0  0  0  0
   -2.7947    0.1511    0.2211 C   0  0  0  0  0  0
   -4.2847    0.1755    0.0414 C   0  0  0  0  0  0
   -5.0252   -1.0268    0.0321 C   0  0  0  0  0  0
   -5.0011    1.3898   -0.0756 C   0  0  0  0  0  0
   -6.4244   -0.9678   -0.1145 C   0  0  0  0  0  0
   -7.0334    0.2958   -0.2375 C   0  0  0  0  0  0
   -0.2549   -1.8029   -0.0666 H   0  0  0  0  0  0
   -0.4670    0.9691    1.6208 H   0  0  0  0  0  0
    1.4680   -3.0839   -1.3032 H   0  0  0  0  0  0
    0.2420   -1.2990    2.2736 H   0  0  0  0  0  0
    1.5636   -0.2488    2.7011 H   0  0  0  0  0  0
   -0.7547   -1.2136   -2.1258 H   0  0  0  0  0  0
    0.8836   -0.9309   -2.6083 H   0  0  0  0  0  0
   -0.6496    2.4627   -0.6176 H   0  0  0  0  0  0
    0.8511    1.3221   -2.0234 H   0  0  0  0  0  0
   -0.7338    1.0808   -2.6770 H   0  0  0  0  0  0
    3.1086   -1.6293   -2.0940 H   0  0  0  0  0  0
    3.9546   -2.3420   -0.7696 H   0  0  0  0  0  0
    3.2155   -1.8159    1.8015 H   0  0  0  0  0  0
    2.1157   -2.7128    2.8157 H   0  0  0  0  0  0
   -2.6962    1.7864   -0.9251 H   0  0  0  0  0  0
    2.5163   -4.8486    1.6369 H   0  0  0  0  0  0
    2.3740   -4.9228   -0.1146 H   0  0  0  0  0  0
    3.7285   -4.0639    0.6316 H   0  0  0  0  0  0
    5.4090    0.0667   -1.2780 H   0  0  0  0  0  0
    5.4837    2.4467   -0.5624 H   0  0  0  0  0  0
    2.6924    4.0871    0.9584 H   0  0  0  0  0  0
   -4.5339   -1.9841    0.1313 H   0  0  0  0  0  0
   -4.4918    2.3423   -0.0530 H   0  0  0  0  0  0
   -7.0175   -1.8702   -0.1307 H   0  0  0  0  0  0
   -8.1042    0.3780   -0.3513 H   0  0  0  0  0  0
    1.8465   -3.0458    0.7450 N   0  3  2  0  0  0
    0.9055   -3.3651    0.9280 H   0  0  0  0  0  0
  1  8  1  0  0  0
  1 18  1  0  0  0
  2 21  1  0  0  0
  2 49  1  0  0  0
  3 23  2  0  0  0
  4 13  1  0  0  0
  4 23  1  0  0  0
  4 43  1  0  0  0
  5 26  1  0  0  0
  5 28  2  0  0  0
  6  7  1  0  0  0
  6  8  1  0  0  0
  6 10  1  0  0  0
  6 11  1  0  0  0
  7  9  1  0  0  0
  7 12  1  0  0  0
  7 29  1  0  0  0
  8 13  1  0  0  0
  8 30  1  0  0  0
  9 15  1  0  0  0
  9 31  1  0  0  0
  9 54  1  0  0  0
 10 16  1  0  0  0
 10 32  1  0  0  0
 10 33  1  0  0  0
 11 17  2  0  0  0
 11 18  1  0  0  0
 12 14  1  0  0  0
 12 34  1  0  0  0
 12 35  1  0  0  0
 13 14  1  0  0  0
 13 36  1  0  0  0
 14 37  1  0  0  0
 14 38  1  0  0  0
 15 17  1  0  0  0
 15 39  1  0  0  0
 15 40  1  0  0  0
 16 41  1  0  0  0
 16 42  1  0  0  0
 16 54  1  0  0  0
 17 20  1  0  0  0
 18 21  2  0  0  0
 19 44  1  0  0  0
 19 45  1  0  0  0
 19 46  1  0  0  0
 19 54  1  0  0  0
 20 22  2  0  0  0
 20 47  1  0  0  0
 21 22  1  0  0  0
 22 48  1  0  0  0
 23 24  1  0  0  0
 24 25  1  0  0  0
 24 26  2  0  0  0
 25 27  2  0  0  0
 25 50  1  0  0  0
 26 51  1  0  0  0
 27 28  1  0  0  0
 27 52  1  0  0  0
 28 53  1  0  0  0
 54 55  1  0  0  0
M  CHG  1  54   1
M  END
> <LID>
L012401

> <PC_CID>
44212444

> <Names>


> <CAS_Numbers>


$$$$
15096221
                    3D
 Structure written by MMmdl.
 62 66  0  0  1  0            999 V2000
   -4.2193   -1.3079   -1.4377 S   0  0  0  0  0  0
    1.7454   -4.1903    0.1319 O   0  0  0  0  0  0
   -2.3347    0.2122    0.3687 N   0  0  0  0  0  0
    2.2944   -1.9903    0.2226 N   0  0  0  0  0  0
   -0.6769    1.6407   -0.8798 C   0  0  0  0  0  0
    0.1157    3.4576   -2.3755 C   0  0  0  0  0  0
    1.2376    3.1591   -0.2911 C   0  0  0  0  0  0
    1.2544    4.4702   -2.3161 C   0  0  0  0  0  0
    2.1826    3.8639   -1.2713 C   0  0  0  0  0  0
   -1.4966    1.4329    0.4220 C   0  0  2  0  0  0
   -0.6666    1.5451    1.7219 C   0  0  0  0  0  0
   -1.8198   -0.9643   -0.0922 C   0  0  0  0  0  0
   -3.6472    0.3530    0.7073 C   0  0  0  0  0  0
   -2.5742   -1.7630   -0.9888 C   0  0  0  0  0  0
   -4.6517   -0.2761   -0.0723 C   0  0  0  0  0  0
   -0.5280   -1.4137    0.2703 C   0  0  0  0  0  0
   -4.0538    1.1425    1.8125 C   0  0  0  0  0  0
   -2.0350   -2.9466   -1.5293 C   0  0  0  0  0  0
    0.0340   -2.5820   -0.2922 C   0  0  0  0  0  0
   -6.0163   -0.1005    0.2312 C   0  0  0  0  0  0
   -0.7345   -3.3554   -1.1852 C   0  0  0  0  0  0
   -5.4176    1.3092    2.1203 C   0  0  0  0  0  0
   -6.4007    0.6918    1.3273 C   0  0  0  0  0  0
    1.4305   -3.0028    0.0628 C   0  0  0  0  0  0
    3.7110   -2.1238    0.5261 C   0  0  0  0  0  0
    4.4103   -0.7750    0.5893 C   0  0  0  0  0  0
    5.6939   -0.6220    0.0232 C   0  0  0  0  0  0
    3.7920    0.3318    1.2148 C   0  0  0  0  0  0
    6.3460    0.6258    0.0679 C   0  0  0  0  0  0
    4.4443    1.5793    1.2585 C   0  0  0  0  0  0
    5.7205    1.7273    0.6829 C   0  0  0  0  0  0
   -1.3650    1.5208   -1.7189 H   0  0  0  0  0  0
    0.0930    0.8805   -1.0134 H   0  0  0  0  0  0
   -0.8032    3.8819   -2.7815 H   0  0  0  0  0  0
    0.4105    2.6204   -3.0111 H   0  0  0  0  0  0
    1.0845    3.7719    0.5975 H   0  0  0  0  0  0
    1.6683    2.2109    0.0317 H   0  0  0  0  0  0
    0.8807    5.4350   -1.9701 H   0  0  0  0  0  0
    1.7403    4.6209   -3.2807 H   0  0  0  0  0  0
    2.8353    3.1283   -1.7441 H   0  0  0  0  0  0
    2.8168    4.6068   -0.7865 H   0  0  0  0  0  0
   -2.1895    2.2757    0.4414 H   0  0  0  0  0  0
   -1.1702    1.0870    2.5729 H   0  0  0  0  0  0
    0.3176    1.0892    1.6400 H   0  0  0  0  0  0
   -0.5014    2.5912    1.9782 H   0  0  0  0  0  0
    0.0568   -0.8606    0.9822 H   0  0  0  0  0  0
   -3.3299    1.6368    2.4408 H   0  0  0  0  0  0
   -2.6206   -3.5456   -2.2113 H   0  0  0  0  0  0
   -6.7718   -0.5820   -0.3724 H   0  0  0  0  0  0
   -0.3298   -4.2604   -1.6155 H   0  0  0  0  0  0
   -5.7094    1.9157    2.9652 H   0  0  0  0  0  0
   -7.4471    0.8216    1.5618 H   0  0  0  0  0  0
    1.9446   -1.0513    0.1071 H   0  0  0  0  0  0
    3.8321   -2.6274    1.4863 H   0  0  0  0  0  0
    4.1835   -2.7528   -0.2303 H   0  0  0  0  0  0
    6.1823   -1.4601   -0.4524 H   0  0  0  0  0  0
    2.8164    0.2307    1.6671 H   0  0  0  0  0  0
    7.3269    0.7378   -0.3702 H   0  0  0  0  0  0
    3.9667    2.4222    1.7359 H   0  0  0  0  0  0
    6.2216    2.6836    0.7170 H   0  0  0  0  0  0
   -0.0662    2.9905   -0.9839 N   0  3  0  0  0  0
   -0.7072    3.6447   -0.5577 H   0  0  0  0  0  0
  1 14  1  0  0  0
  1 15  1  0  0  0
  2 24  2  0  0  0
  3 10  1  0  0  0
  3 12  1  0  0  0
  3 13  1  0  0  0
  4 24  1  0  0  0
  4 25  1  0  0  0
  4 53  1  0  0  0
  5 10  1  0  0  0
  5 32  1  0  0  0
  5 33  1  0  0  0
  5 61  1  0  0  0
  6  8  1  0  0  0
  6 34  1  0  0  0
  6 35  1  0  0  0
  6 61  1  0  0  0
  7  9  1  0  0  0
  7 36  1  0  0  0
  7 37  1  0  0  0
  7 61  1  0  0  0
  8  9  1  0  0  0
  8 38  1  0  0  0
  8 39  1  0  0  0
  9 40  1  0  0  0
  9 41  1  0  0  0
 10 11  1  0  0  0
 10 42  1  0  0  0
 11 43  1  0  0  0
 11 44  1  0  0  0
 11 45  1  0  0  0
 12 14  2  0  0  0
 12 16  1  0  0  0
 13 15  1  0  0  0
 13 17  2  0  0  0
 14 18  1  0  0  0
 15 20  2  0  0  0
 16 19  2  0  0  0
 16 46  1  0  0  0
 17 22  1  0  0  0
 17 47  1  0  0  0
 18 21  2  0  0  0
 18 48  1  0  0  0
 19 21  1  0  0  0
 19 24  1  0  0  0
 20 23  1  0  0  0
 20 49  1  0  0  0
 21 50  1  0  0  0
 22 23  2  0  0  0
 22 51  1  0  0  0
 23 52  1  0  0  0
 25 26  1  0  0  0
 25 54  1  0  0  0
 25 55  1  0  0  0
 26 27  2  0  0  0
 26 28  1  0  0  0
 27 29  1  0  0  0
 27 56  1  0  0  0
 28 30  2  0  0  0
 28 57  1  0  0  0
 29 31  2  0  0  0
 29 58  1  0  0  0
 30 31  1  0  0  0
 30 59  1  0  0  0
 31 60  1  0  0  0
 61 62  1  0  0  0
M  CHG  1  61   1
M  END
> <LID>
L003542

> <PC_CID>
15096221

> <Names>


> <CAS_Numbers>


$$$$
15730168
                    3D
 Structure written by MMmdl.
 52 55  0  0  1  0            999 V2000
   -3.3774    1.4131    3.2035 Cl  0  0  0  0  0  0
   -5.6800    2.3593    1.2161 Cl  0  0  0  0  0  0
    2.8715   -3.5910    0.5182 S   0  0  0  0  0  0
    0.2658   -0.1122   -1.7240 O   0  0  0  0  0  0
   -3.9918   -0.5637   -3.3748 O   0  0  0  0  0  0
    0.8088   -1.2554    0.1683 N   0  0  0  0  0  0
    2.2519   -0.8997    0.2324 C   0  0  2  0  0  0
    2.6438    0.4987   -0.3196 C   0  0  0  0  0  0
    4.6737    1.7954   -0.9578 C   0  0  0  0  0  0
    4.1968    1.4104    1.4263 C   0  0  0  0  0  0
    3.0496   -2.0462   -0.4254 C   0  0  0  0  0  0
   -1.4916   -1.4611   -0.8737 C   0  0  2  0  0  0
    4.1231    3.2304   -0.8667 C   0  0  0  0  0  0
    3.6681    2.8508    1.5825 C   0  0  0  0  0  0
    0.5015   -2.3017    1.1610 C   0  0  0  0  0  0
    4.3029    3.7926    0.5499 C   0  0  0  0  0  0
   -0.0512   -0.8950   -0.8296 C   0  0  0  0  0  0
    1.0610   -3.6501    0.6763 C   0  0  0  0  0  0
   -2.0541   -1.6049   -2.3198 C   0  0  0  0  0  0
   -2.4607   -0.5077   -0.1998 C   0  0  0  0  0  0
   -3.4715   -0.0911   -1.0608 C   0  0  0  0  0  0
   -3.2932   -0.7080   -2.3737 C   0  0  0  0  0  0
   -2.4234   -0.0488    1.1316 C   0  0  0  0  0  0
   -4.4787    0.7965   -0.6441 C   0  0  0  0  0  0
   -3.4250    0.8448    1.5727 C   0  0  0  0  0  0
   -4.4505    1.2669    0.6872 C   0  0  0  0  0  0
    2.5280   -0.8800    1.2858 H   0  0  0  0  0  0
    2.5864    0.4723   -1.4074 H   0  0  0  0  0  0
    1.9374    1.2599    0.0115 H   0  0  0  0  0  0
    4.5514    1.4001   -1.9669 H   0  0  0  0  0  0
    5.7484    1.8084   -0.7705 H   0  0  0  0  0  0
    3.7150    0.7539    2.1496 H   0  0  0  0  0  0
    5.2597    1.3928    1.6709 H   0  0  0  0  0  0
    2.7142   -2.2097   -1.4505 H   0  0  0  0  0  0
    4.1124   -1.8102   -0.4747 H   0  0  0  0  0  0
   -1.5684   -2.4458   -0.4185 H   0  0  0  0  0  0
    3.0674    3.2451   -1.1406 H   0  0  0  0  0  0
    4.6352    3.8704   -1.5858 H   0  0  0  0  0  0
    3.8798    3.2132    2.5890 H   0  0  0  0  0  0
    2.5830    2.8699    1.4794 H   0  0  0  0  0  0
    0.9456   -2.0527    2.1256 H   0  0  0  0  0  0
   -0.5571   -2.3856    1.3953 H   0  0  0  0  0  0
    5.3657    3.9108    0.7655 H   0  0  0  0  0  0
    3.8586    4.7859    0.6217 H   0  0  0  0  0  0
    0.6287   -3.9184   -0.2883 H   0  0  0  0  0  0
    0.7979   -4.4446    1.3749 H   0  0  0  0  0  0
   -2.3474   -2.6354   -2.5209 H   0  0  0  0  0  0
   -1.3476   -1.3072   -3.0946 H   0  0  0  0  0  0
   -1.6435   -0.3652    1.8076 H   0  0  0  0  0  0
   -5.2560    1.1111   -1.3255 H   0  0  0  0  0  0
    4.0353    0.8930    0.0381 N   0  3  0  0  0  0
    4.5675    0.0356   -0.0054 H   0  0  0  0  0  0
  1 25  1  0  0  0
  2 26  1  0  0  0
  3 11  1  0  0  0
  3 18  1  0  0  0
  4 17  2  0  0  0
  5 22  2  0  0  0
  6  7  1  0  0  0
  6 15  1  0  0  0
  6 17  1  0  0  0
  7  8  1  0  0  0
  7 11  1  0  0  0
  7 27  1  0  0  0
  8 28  1  0  0  0
  8 29  1  0  0  0
  8 51  1  0  0  0
  9 13  1  0  0  0
  9 30  1  0  0  0
  9 31  1  0  0  0
  9 51  1  0  0  0
 10 14  1  0  0  0
 10 32  1  0  0  0
 10 33  1  0  0  0
 10 51  1  0  0  0
 11 34  1  0  0  0
 11 35  1  0  0  0
 12 17  1  0  0  0
 12 19  1  0  0  0
 12 20  1  0  0  0
 12 36  1  0  0  0
 13 16  1  0  0  0
 13 37  1  0  0  0
 13 38  1  0  0  0
 14 16  1  0  0  0
 14 39  1  0  0  0
 14 40  1  0  0  0
 15 18  1  0  0  0
 15 41  1  0  0  0
 15 42  1  0  0  0
 16 43  1  0  0  0
 16 44  1  0  0  0
 18 45  1  0  0  0
 18 46  1  0  0  0
 19 22  1  0  0  0
 19 47  1  0  0  0
 19 48  1  0  0  0
 20 21  1  0  0  0
 20 23  2  0  0  0
 21 22  1  0  0  0
 21 24  2  0  0  0
 23 25  1  0  0  0
 23 49  1  0  0  0
 24 26  1  0  0  0
 24 50  1  0  0  0
 25 26  2  0  0  0
 51 52  1  0  0  0
M  CHG  1  51   1
M  END
> <LID>
L004496

> <PC_CID>
15730168

> <Names>


> <CAS_Numbers>


$$$$
44209567
                    3D
 Structure written by MMmdl.
 53 55  0  0  1  0            999 V2000
    7.3090    0.6612    2.1472 Cl  0  0  0  0  0  0
   -3.6809    5.3599   -1.5813 O   0  0  0  0  0  0
    1.1422    0.4844    0.5351 O   0  0  0  0  0  0
   -4.1135   -2.3863    1.7236 O   0  0  0  0  0  0
   -0.2250   -0.9322   -0.5793 N   0  0  0  0  0  0
   -2.4803   -2.4086    0.1445 N   0  0  0  0  0  0
   -1.4423   -0.1621   -0.2441 C   0  0  1  0  0  0
   -1.5546    1.1036   -1.1268 C   0  0  0  0  0  0
   -2.7247   -1.0331   -0.3152 C   0  0  0  0  0  0
   -3.0344    3.0069   -1.7301 C   0  0  0  0  0  0
   -2.5377    2.6492    0.5805 C   0  0  0  0  0  0
   -3.7269    4.1078   -0.9302 C   0  0  1  0  0  0
   -2.9351    4.1162    0.3738 C   0  0  0  0  0  0
   -0.4794   -2.1570   -1.3520 C   0  0  0  0  0  0
   -1.3895   -3.1104   -0.5525 C   0  0  0  0  0  0
    0.9940   -0.5506   -0.1188 C   0  0  0  0  0  0
   -3.2161   -2.9814    1.1270 C   0  0  0  0  0  0
    2.2214   -1.4334   -0.4181 C   0  0  0  0  0  0
   -2.9326   -4.4353    1.5141 C   0  0  0  0  0  0
    3.4967   -0.9076    0.2251 C   0  0  0  0  0  0
    4.3345   -0.0186   -0.4821 C   0  0  0  0  0  0
    3.8509   -1.3097    1.5309 C   0  0  0  0  0  0
    5.5147    0.4672    0.1136 C   0  0  0  0  0  0
    5.0313   -0.8234    2.1259 C   0  0  0  0  0  0
    5.8635    0.0653    1.4177 C   0  0  0  0  0  0
   -1.3503    0.1407    0.8008 H   0  0  0  0  0  0
   -0.6350    1.6899   -1.0968 H   0  0  0  0  0  0
   -1.6888    0.7998   -2.1661 H   0  0  0  0  0  0
   -3.5276   -0.5395    0.2339 H   0  0  0  0  0  0
   -3.0789   -1.0968   -1.3454 H   0  0  0  0  0  0
   -3.6603    2.6065   -2.5283 H   0  0  0  0  0  0
   -2.1188    3.3952   -2.1812 H   0  0  0  0  0  0
   -1.5209    2.5802    0.9706 H   0  0  0  0  0  0
   -3.1992    2.1636    1.2988 H   0  0  0  0  0  0
   -4.7642    3.8326   -0.7331 H   0  0  0  0  0  0
   -3.5022    4.5249    1.2108 H   0  0  0  0  0  0
   -2.0324    4.7190    0.2594 H   0  0  0  0  0  0
    0.4151   -2.6889   -1.6709 H   0  0  0  0  0  0
   -0.9753   -1.8689   -2.2802 H   0  0  0  0  0  0
   -1.8021   -3.8740   -1.2132 H   0  0  0  0  0  0
   -0.7639   -3.6251    0.1780 H   0  0  0  0  0  0
   -4.2052    5.3173   -2.3670 H   0  0  0  0  0  0
    2.0402   -2.4460   -0.0553 H   0  0  0  0  0  0
    2.3704   -1.4951   -1.4968 H   0  0  0  0  0  0
   -3.6834   -4.7966    2.2177 H   0  0  0  0  0  0
   -2.9576   -5.0868    0.6403 H   0  0  0  0  0  0
   -1.9578   -4.5238    1.9940 H   0  0  0  0  0  0
    4.0725    0.2958   -1.4817 H   0  0  0  0  0  0
    3.2164   -1.9892    2.0810 H   0  0  0  0  0  0
    6.1516    1.1487   -0.4309 H   0  0  0  0  0  0
    5.2970   -1.1326    3.1261 H   0  0  0  0  0  0
   -2.6890    1.9727   -0.7323 N   0  3  2  0  0  0
   -3.5047    1.3821   -0.6529 H   0  0  0  0  0  0
  1 25  1  0  0  0
  2 12  1  0  0  0
  2 42  1  0  0  0
  3 16  2  0  0  0
  4 17  2  0  0  0
  5  7  1  0  0  0
  5 14  1  0  0  0
  5 16  1  0  0  0
  6  9  1  0  0  0
  6 15  1  0  0  0
  6 17  1  0  0  0
  7  8  1  0  0  0
  7  9  1  0  0  0
  7 26  1  0  0  0
  8 27  1  0  0  0
  8 28  1  0  0  0
  8 52  1  0  0  0
  9 29  1  0  0  0
  9 30  1  0  0  0
 10 12  1  0  0  0
 10 31  1  0  0  0
 10 32  1  0  0  0
 10 52  1  0  0  0
 11 13  1  0  0  0
 11 33  1  0  0  0
 11 34  1  0  0  0
 11 52  1  0  0  0
 12 13  1  0  0  0
 12 35  1  0  0  0
 13 36  1  0  0  0
 13 37  1  0  0  0
 14 15  1  0  0  0
 14 38  1  0  0  0
 14 39  1  0  0  0
 15 40  1  0  0  0
 15 41  1  0  0  0
 16 18  1  0  0  0
 17 19  1  0  0  0
 18 20  1  0  0  0
 18 43  1  0  0  0
 18 44  1  0  0  0
 19 45  1  0  0  0
 19 46  1  0  0  0
 19 47  1  0  0  0
 20 21  2  0  0  0
 20 22  1  0  0  0
 21 23  1  0  0  0
 21 48  1  0  0  0
 22 24  2  0  0  0
 22 49  1  0  0  0
 23 25  2  0  0  0
 23 50  1  0  0  0
 24 25  1  0  0  0
 24 51  1  0  0  0
 52 53  1  0  0  0
M  CHG  1  52   1
M  END
> <LID>
L004342

> <PC_CID>
44209567

> <Names>


> <CAS_Numbers>


$$$$
15730161
                    3D
 Structure written by MMmdl.
 46 48  0  0  1  0            999 V2000
    5.2528   -1.5312    2.0357 Cl  0  0  0  0  0  0
    6.4616   -1.8304   -0.9001 Cl  0  0  0  0  0  0
   -3.0598    2.7400   -1.7147 S   0  0  0  0  0  0
    0.2797   -0.4078   -0.3516 O   0  0  0  0  0  0
   -0.9665    1.4177    0.1927 N   0  0  0  0  0  0
   -2.3098    0.7885    0.1109 C   0  0  2  0  0  0
   -2.3876   -0.6672    0.6541 C   0  0  0  0  0  0
   -3.8770   -2.0807    2.0514 C   0  0  0  0  0  0
   -4.5105   -1.7095   -0.2192 C   0  0  0  0  0  0
   -5.1495   -2.8789    1.7896 C   0  0  0  0  0  0
   -5.1439   -3.0161    0.2729 C   0  0  0  0  0  0
   -2.8186    0.9768   -1.3356 C   0  0  0  0  0  0
   -1.0759    2.8870    0.2235 C   0  0  0  0  0  0
   -1.4539    3.4007   -1.1768 C   0  0  0  0  0  0
    0.2149    0.7849   -0.0538 C   0  0  0  0  0  0
    1.5286    1.5877    0.0487 C   0  0  0  0  0  0
    2.7654    0.7307   -0.1825 C   0  0  0  0  0  0
    3.3815    0.0670    0.8995 C   0  0  0  0  0  0
    3.3044    0.5972   -1.4792 C   0  0  0  0  0  0
    4.5252   -0.7288    0.6896 C   0  0  0  0  0  0
    4.4476   -0.1970   -1.6913 C   0  0  0  0  0  0
    5.0605   -0.8615   -0.6108 C   0  0  0  0  0  0
   -2.9757    1.3556    0.7635 H   0  0  0  0  0  0
   -1.9142   -1.3888   -0.0114 H   0  0  0  0  0  0
   -1.8308   -0.6987    1.5925 H   0  0  0  0  0  0
   -3.0198   -2.7568    2.0378 H   0  0  0  0  0  0
   -3.8905   -1.5733    3.0165 H   0  0  0  0  0  0
   -5.2874   -1.0087   -0.5263 H   0  0  0  0  0  0
   -3.8708   -1.8939   -1.0834 H   0  0  0  0  0  0
   -5.1619   -3.8404    2.3041 H   0  0  0  0  0  0
   -6.0230   -2.3100    2.1115 H   0  0  0  0  0  0
   -6.1388   -3.1859   -0.1402 H   0  0  0  0  0  0
   -4.5156   -3.8603   -0.0149 H   0  0  0  0  0  0
   -3.7782    0.4921   -1.4946 H   0  0  0  0  0  0
   -2.1205    0.5424   -2.0523 H   0  0  0  0  0  0
   -0.1705    3.3830    0.5694 H   0  0  0  0  0  0
   -1.8342    3.1955    0.9444 H   0  0  0  0  0  0
   -0.6938    3.1157   -1.9050 H   0  0  0  0  0  0
   -1.5053    4.4896   -1.1817 H   0  0  0  0  0  0
    1.5233    2.3965   -0.6831 H   0  0  0  0  0  0
    1.6015    2.0425    1.0374 H   0  0  0  0  0  0
    2.9742    0.1640    1.8953 H   0  0  0  0  0  0
    2.8406    1.1000   -2.3154 H   0  0  0  0  0  0
    4.8544   -0.2968   -2.6869 H   0  0  0  0  0  0
   -3.7764   -1.1203    0.9303 N   0  3  0  0  0  0
   -4.3035   -0.3091    1.2213 H   0  0  0  0  0  0
  1 20  1  0  0  0
  2 22  1  0  0  0
  3 12  1  0  0  0
  3 14  1  0  0  0
  4 15  2  0  0  0
  5  6  1  0  0  0
  5 13  1  0  0  0
  5 15  1  0  0  0
  6  7  1  0  0  0
  6 12  1  0  0  0
  6 23  1  0  0  0
  7 24  1  0  0  0
  7 25  1  0  0  0
  7 45  1  0  0  0
  8 10  1  0  0  0
  8 26  1  0  0  0
  8 27  1  0  0  0
  8 45  1  0  0  0
  9 11  1  0  0  0
  9 28  1  0  0  0
  9 29  1  0  0  0
  9 45  1  0  0  0
 10 11  1  0  0  0
 10 30  1  0  0  0
 10 31  1  0  0  0
 11 32  1  0  0  0
 11 33  1  0  0  0
 12 34  1  0  0  0
 12 35  1  0  0  0
 13 14  1  0  0  0
 13 36  1  0  0  0
 13 37  1  0  0  0
 14 38  1  0  0  0
 14 39  1  0  0  0
 15 16  1  0  0  0
 16 17  1  0  0  0
 16 40  1  0  0  0
 16 41  1  0  0  0
 17 18  2  0  0  0
 17 19  1  0  0  0
 18 20  1  0  0  0
 18 42  1  0  0  0
 19 21  2  0  0  0
 19 43  1  0  0  0
 20 22  2  0  0  0
 21 22  1  0  0  0
 21 44  1  0  0  0
 45 46  1  0  0  0
M  CHG  1  45   1
M  END
> <LID>
L004488

> <PC_CID>
15730161

> <Names>


> <CAS_Numbers>


$$$$
10480966
                    3D
 Structure written by MMmdl.
 74 78  0  0  1  0            999 V2000
   -3.2818   -0.7202   -3.3351 O   0  0  0  0  0  0
    2.2223    1.6118   -1.9393 O   0  0  0  0  0  0
   -5.1543   -0.1668   -0.3676 N   0  0  0  0  0  0
   -5.4243   -0.4441   -2.6579 N   0  0  0  0  0  0
    4.4501    1.6425   -1.6752 N   0  0  0  0  0  0
   -3.8141   -0.3593   -0.9649 C   0  0  0  0  0  0
   -3.1165   -1.6480   -0.4376 C   0  0  0  0  0  0
   -2.9017    0.8880   -0.7706 C   0  0  0  0  0  0
   -1.6378   -1.7709   -0.8560 C   0  0  0  0  0  0
   -1.4339    0.6521   -1.1771 C   0  0  0  0  0  0
   -4.1207   -0.5302   -2.4568 C   0  0  0  0  0  0
   -6.1602   -0.2204   -1.4371 C   0  0  0  0  0  0
    0.5858   -0.7055   -0.7329 C   0  0  0  0  0  0
    1.4249    0.1847    0.2211 C   0  0  0  0  0  0
   -5.5050    0.0351    0.9419 C   0  0  0  0  0  0
    2.9674    0.2759   -0.0719 C   0  0  0  0  0  0
    3.6316    0.9523    1.1608 C   0  0  0  0  0  0
    3.4527   -1.1798   -0.3400 C   0  0  0  0  0  0
   -6.8710    0.1981    1.2981 C   0  0  0  0  0  0
   -4.5536    0.0927    1.9944 C   0  0  0  0  0  0
    3.2075    1.2241   -1.3052 C   0  0  0  0  0  0
   -7.2657    0.4072    2.6335 C   0  0  0  0  0  0
   -4.9451    0.3017    3.3308 C   0  0  0  0  0  0
    4.7348    0.3830    1.8502 C   0  0  0  0  0  0
    3.9211   -1.6282   -1.6053 C   0  0  0  0  0  0
    3.1458    2.2037    1.6210 C   0  0  0  0  0  0
    3.3396   -2.1436    0.6948 C   0  0  0  0  0  0
   -6.3025    0.4595    3.6540 C   0  0  0  0  0  0
    5.3126    1.0277    2.9606 C   0  0  0  0  0  0
    4.3017   -2.9689   -1.8065 C   0  0  0  0  0  0
    3.7221    2.8497    2.7311 C   0  0  0  0  0  0
    3.7193   -3.4840    0.4954 C   0  0  0  0  0  0
    4.5977    2.6048   -2.7729 C   0  0  0  0  0  0
    5.7278    1.2220   -1.0925 C   0  0  0  0  0  0
    4.8049    2.2603    3.4055 C   0  0  0  0  0  0
    4.2060   -3.8978   -0.7561 C   0  0  0  0  0  0
   -3.1594   -1.7169    0.6454 H   0  0  0  0  0  0
   -3.6566   -2.5308   -0.7844 H   0  0  0  0  0  0
   -3.2963    1.7290   -1.3435 H   0  0  0  0  0  0
   -2.9069    1.2383    0.2573 H   0  0  0  0  0  0
   -1.2070   -2.6335   -0.3459 H   0  0  0  0  0  0
   -1.5416   -1.9702   -1.9236 H   0  0  0  0  0  0
   -0.8559    1.5381   -0.9162 H   0  0  0  0  0  0
   -1.3380    0.5446   -2.2577 H   0  0  0  0  0  0
   -6.7116    0.7183   -1.5093 H   0  0  0  0  0  0
   -6.8632   -1.0396   -1.2787 H   0  0  0  0  0  0
    0.8575   -1.7476   -0.5633 H   0  0  0  0  0  0
    0.8088   -0.5097   -1.7819 H   0  0  0  0  0  0
   -5.8684   -0.5257   -3.5610 H   0  0  0  0  0  0
    0.9913    1.1827    0.2605 H   0  0  0  0  0  0
    1.2813   -0.2094    1.2283 H   0  0  0  0  0  0
   -7.6563    0.1676    0.5587 H   0  0  0  0  0  0
   -3.4981   -0.0198    1.8203 H   0  0  0  0  0  0
   -8.3118    0.5277    2.8738 H   0  0  0  0  0  0
   -4.1990    0.3409    4.1108 H   0  0  0  0  0  0
    5.1775   -0.5480    1.5336 H   0  0  0  0  0  0
    3.9993   -0.9655   -2.4531 H   0  0  0  0  0  0
    2.3263    2.6944    1.1183 H   0  0  0  0  0  0
    2.9598   -1.8539    1.6636 H   0  0  0  0  0  0
   -6.6034    0.6199    4.6789 H   0  0  0  0  0  0
    6.1524    0.5765    3.4683 H   0  0  0  0  0  0
    4.6632   -3.2863   -2.7736 H   0  0  0  0  0  0
    3.3345    3.8018    3.0625 H   0  0  0  0  0  0
    3.6333   -4.1957    1.3033 H   0  0  0  0  0  0
    5.6016    3.0279   -2.8253 H   0  0  0  0  0  0
    4.3886    2.1230   -3.7289 H   0  0  0  0  0  0
    3.9121    3.4460   -2.6577 H   0  0  0  0  0  0
    6.5313    1.2573   -1.8290 H   0  0  0  0  0  0
    6.0032    1.8868   -0.2734 H   0  0  0  0  0  0
    5.7166    0.2013   -0.7193 H   0  0  0  0  0  0
    5.2497    2.7557    4.2560 H   0  0  0  0  0  0
    4.4970   -4.9262   -0.9126 H   0  0  0  0  0  0
   -0.8726   -0.5481   -0.5031 N   0  3  0  0  0  0
   -0.9921   -0.4184    0.4913 H   0  0  0  0  0  0
  1 11  2  0  0  0
  2 21  2  0  0  0
  3  6  1  0  0  0
  3 12  1  0  0  0
  3 15  1  0  0  0
  4 11  1  0  0  0
  4 12  1  0  0  0
  4 49  1  0  0  0
  5 21  1  0  0  0
  5 33  1  0  0  0
  5 34  1  0  0  0
  6  7  1  0  0  0
  6  8  1  0  0  0
  6 11  1  0  0  0
  7  9  1  0  0  0
  7 37  1  0  0  0
  7 38  1  0  0  0
  8 10  1  0  0  0
  8 39  1  0  0  0
  8 40  1  0  0  0
  9 41  1  0  0  0
  9 42  1  0  0  0
  9 73  1  0  0  0
 10 43  1  0  0  0
 10 44  1  0  0  0
 10 73  1  0  0  0
 12 45  1  0  0  0
 12 46  1  0  0  0
 13 14  1  0  0  0
 13 47  1  0  0  0
 13 48  1  0  0  0
 13 73  1  0  0  0
 14 16  1  0  0  0
 14 50  1  0  0  0
 14 51  1  0  0  0
 15 19  2  0  0  0
 15 20  1  0  0  0
 16 17  1  0  0  0
 16 18  1  0  0  0
 16 21  1  0  0  0
 17 24  2  0  0  0
 17 26  1  0  0  0
 18 25  2  0  0  0
 18 27  1  0  0  0
 19 22  1  0  0  0
 19 52  1  0  0  0
 20 23  2  0  0  0
 20 53  1  0  0  0
 22 28  2  0  0  0
 22 54  1  0  0  0
 23 28  1  0  0  0
 23 55  1  0  0  0
 24 29  1  0  0  0
 24 56  1  0  0  0
 25 30  1  0  0  0
 25 57  1  0  0  0
 26 31  2  0  0  0
 26 58  1  0  0  0
 27 32  2  0  0  0
 27 59  1  0  0  0
 28 60  1  0  0  0
 29 35  2  0  0  0
 29 61  1  0  0  0
 30 36  2  0  0  0
 30 62  1  0  0  0
 31 35  1  0  0  0
 31 63  1  0  0  0
 32 36  1  0  0  0
 32 64  1  0  0  0
 33 65  1  0  0  0
 33 66  1  0  0  0
 33 67  1  0  0  0
 34 68  1  0  0  0
 34 69  1  0  0  0
 34 70  1  0  0  0
 35 71  1  0  0  0
 36 72  1  0  0  0
 73 74  1  0  0  0
M  CHG  1  73   1
M  END
> <LID>
L022589

> <PC_CID>
10480966

> <Names>


> <CAS_Numbers>


$$$$
9841487
                    3D
 Structure written by MMmdl.
 54 56  0  0  1  0            999 V2000
   -6.0725    0.7554    2.2066 O   0  0  0  0  0  0
    0.6159    1.0446   -2.0805 O   0  0  0  0  0  0
    0.4919    1.2540    0.1778 N   0  0  0  0  0  0
    4.5213    2.1499    1.1853 N   0  0  0  0  0  0
   -3.7825    0.9211    1.3356 C   0  0  0  0  0  0
   -4.3690    1.4173   -0.9288 C   0  0  0  0  0  0
   -5.2347    1.4181    1.2829 C   0  0  1  0  0  0
   -5.6646    1.1758   -0.1606 C   0  0  0  0  0  0
   -1.9605    1.4437   -0.3083 C   0  0  0  0  0  0
   -0.8241    0.5941    0.3187 C   0  0  1  0  0  0
   -0.7801   -0.8783   -0.1088 C   0  0  0  0  0  0
    1.1507    1.3294   -1.0087 C   0  0  0  0  0  0
    1.0455    1.7962    1.4248 C   0  0  0  0  0  0
   -1.3231   -1.3294   -1.3356 C   0  0  0  0  0  0
   -0.1428   -1.8100    0.7401 C   0  0  0  0  0  0
    2.6405    1.7147   -1.0415 C   0  0  0  0  0  0
   -1.2405   -2.6885   -1.6951 C   0  0  0  0  0  0
   -0.0592   -3.1685    0.3802 C   0  0  0  0  0  0
    3.5174    0.6338   -0.4035 C   0  0  0  0  0  0
   -0.6106   -3.6091   -0.8371 C   0  0  0  0  0  0
    4.3991    0.9144    0.6737 C   0  0  0  0  0  0
    3.4549   -0.6852   -0.9113 C   0  0  0  0  0  0
    5.1764   -0.1203    1.2346 C   0  0  0  0  0  0
    4.2328   -1.7127   -0.3468 C   0  0  0  0  0  0
    5.0926   -1.4307    0.7292 C   0  0  0  0  0  0
   -3.7153   -0.0830    1.7569 H   0  0  0  0  0  0
   -3.1757    1.5796    1.9589 H   0  0  0  0  0  0
   -4.3721    0.9528   -1.9155 H   0  0  0  0  0  0
   -4.2168    2.4902   -1.0605 H   0  0  0  0  0  0
   -5.2567    2.4895    1.4889 H   0  0  0  0  0  0
   -5.9863    0.1421   -0.2987 H   0  0  0  0  0  0
   -6.4778    1.8292   -0.4786 H   0  0  0  0  0  0
   -1.8148    1.5372   -1.3845 H   0  0  0  0  0  0
   -1.9330    2.4608    0.0861 H   0  0  0  0  0  0
   -1.0517    0.5363    1.3836 H   0  0  0  0  0  0
   -6.0882   -0.1678    2.0042 H   0  0  0  0  0  0
    1.7063    1.0666    1.8936 H   0  0  0  0  0  0
    1.6042    2.7178    1.2655 H   0  0  0  0  0  0
    0.2677    2.0492    2.1458 H   0  0  0  0  0  0
   -1.7938   -0.6431   -2.0227 H   0  0  0  0  0  0
    0.2918   -1.4823    1.6735 H   0  0  0  0  0  0
    2.9526    1.8167   -2.0818 H   0  0  0  0  0  0
    2.7830    2.7012   -0.6046 H   0  0  0  0  0  0
   -1.6552   -3.0242   -2.6342 H   0  0  0  0  0  0
    0.4311   -3.8720    1.0370 H   0  0  0  0  0  0
   -0.5450   -4.6508   -1.1152 H   0  0  0  0  0  0
    2.7995   -0.9184   -1.7380 H   0  0  0  0  0  0
    5.8453    0.0859    2.0578 H   0  0  0  0  0  0
    4.1695   -2.7167   -0.7401 H   0  0  0  0  0  0
    5.6912   -2.2175    1.1641 H   0  0  0  0  0  0
    5.2654    2.3541    1.8371 H   0  0  0  0  0  0
    4.1374    2.9434    0.6934 H   0  0  0  0  0  0
   -3.3037    0.8616   -0.0680 N   0  3  1  0  0  0
   -3.2431   -0.1197   -0.3023 H   0  0  0  0  0  0
  1  7  1  0  0  0
  1 36  1  0  0  0
  2 12  2  0  0  0
  3 10  1  0  0  0
  3 12  1  0  0  0
  3 13  1  0  0  0
  4 21  1  0  0  0
  4 51  1  0  0  0
  4 52  1  0  0  0
  5  7  1  0  0  0
  5 26  1  0  0  0
  5 27  1  0  0  0
  5 53  1  0  0  0
  6  8  1  0  0  0
  6 28  1  0  0  0
  6 29  1  0  0  0
  6 53  1  0  0  0
  7  8  1  0  0  0
  7 30  1  0  0  0
  8 31  1  0  0  0
  8 32  1  0  0  0
  9 10  1  0  0  0
  9 33  1  0  0  0
  9 34  1  0  0  0
  9 53  1  0  0  0
 10 11  1  0  0  0
 10 35  1  0  0  0
 11 14  2  0  0  0
 11 15  1  0  0  0
 12 16  1  0  0  0
 13 37  1  0  0  0
 13 38  1  0  0  0
 13 39  1  0  0  0
 14 17  1  0  0  0
 14 40  1  0  0  0
 15 18  2  0  0  0
 15 41  1  0  0  0
 16 19  1  0  0  0
 16 42  1  0  0  0
 16 43  1  0  0  0
 17 20  2  0  0  0
 17 44  1  0  0  0
 18 20  1  0  0  0
 18 45  1  0  0  0
 19 21  1  0  0  0
 19 22  2  0  0  0
 20 46  1  0  0  0
 21 23  2  0  0  0
 22 24  1  0  0  0
 22 47  1  0  0  0
 23 25  1  0  0  0
 23 48  1  0  0  0
 24 25  2  0  0  0
 24 49  1  0  0  0
 25 50  1  0  0  0
 53 54  1  0  0  0
M  CHG  1  53   1
M  END
> <LID>
L006079

> <PC_CID>
9841487

> <Names>


> <CAS_Numbers>


$$$$
15730164
                    3D
 Structure written by MMmdl.
 49 52  0  0  1  0            999 V2000
    3.6875   -2.2563    2.2785 Cl  0  0  0  0  0  0
    5.8173   -2.3098   -0.0897 Cl  0  0  0  0  0  0
   -3.0899    2.7519    1.8333 S   0  0  0  0  0  0
   -0.5402    0.4964   -1.5641 O   0  0  0  0  0  0
    3.5080    1.7913   -3.3022 O   0  0  0  0  0  0
   -0.9125    0.8521    0.6515 N   0  0  0  0  0  0
   -2.3052    0.3340    0.7098 C   0  0  2  0  0  0
   -2.5918   -0.9050   -0.1864 C   0  0  0  0  0  0
   -3.7726   -3.0868   -0.0690 C   0  0  0  0  0  0
   -5.0927   -1.1294   -0.4157 C   0  0  0  0  0  0
   -5.2223   -3.5301   -0.2322 C   0  0  0  0  0  0
   -5.8467   -2.3478   -0.9615 C   0  0  0  0  0  0
   -3.2465    1.5388    0.4845 C   0  0  0  0  0  0
    1.2370    1.6135   -0.4523 C   0  0  2  0  0  0
   -0.5827    1.5669    1.8970 C   0  0  0  0  0  0
   -0.1585    0.9435   -0.4834 C   0  0  0  0  0  0
   -1.2816    2.9370    1.8943 C   0  0  0  0  0  0
    1.6397    2.2686   -1.8078 C   0  0  0  0  0  0
    2.3203    0.5788   -0.2124 C   0  0  0  0  0  0
    3.2569    0.5512   -1.2412 C   0  0  0  0  0  0
    2.9110    1.5439   -2.2566 C   0  0  0  0  0  0
    2.4465   -0.2880    0.8910 C   0  0  0  0  0  0
    4.3477   -0.3354   -1.2246 C   0  0  0  0  0  0
    3.5347   -1.1884    0.9291 C   0  0  0  0  0  0
    4.4832   -1.2126   -0.1261 C   0  0  0  0  0  0
   -2.4827   -0.0272    1.7241 H   0  0  0  0  0  0
   -2.6486   -0.6521   -1.2450 H   0  0  0  0  0  0
   -1.7522   -1.5937   -0.0751 H   0  0  0  0  0  0
   -3.2325   -3.2747   -0.9990 H   0  0  0  0  0  0
   -3.2585   -3.6183    0.7325 H   0  0  0  0  0  0
   -4.9218   -0.3978   -1.2067 H   0  0  0  0  0  0
   -5.6797   -0.6429    0.3639 H   0  0  0  0  0  0
   -5.3213   -4.4683   -0.7792 H   0  0  0  0  0  0
   -5.6890   -3.6563    0.7458 H   0  0  0  0  0  0
   -6.9247   -2.2801   -0.8120 H   0  0  0  0  0  0
   -5.6648   -2.4427   -2.0330 H   0  0  0  0  0  0
   -3.0321    2.0252   -0.4680 H   0  0  0  0  0  0
   -4.2907    1.2386    0.4578 H   0  0  0  0  0  0
    1.3063    2.3980    0.2978 H   0  0  0  0  0  0
   -0.9127    0.9944    2.7647 H   0  0  0  0  0  0
    0.4858    1.6769    2.0675 H   0  0  0  0  0  0
   -0.9573    3.5296    1.0381 H   0  0  0  0  0  0
   -1.0183    3.5010    2.7892 H   0  0  0  0  0  0
    1.8585    3.3284   -1.6758 H   0  0  0  0  0  0
    0.8738    2.1850   -2.5787 H   0  0  0  0  0  0
    1.7259   -0.2741    1.6946 H   0  0  0  0  0  0
    5.0655   -0.3451   -2.0320 H   0  0  0  0  0  0
   -3.8328   -1.6314    0.1909 N   0  3  0  0  0  0
   -3.9405   -1.5403    1.1913 H   0  0  0  0  0  0
  1 24  1  0  0  0
  2 25  1  0  0  0
  3 13  1  0  0  0
  3 17  1  0  0  0
  4 16  2  0  0  0
  5 21  2  0  0  0
  6  7  1  0  0  0
  6 15  1  0  0  0
  6 16  1  0  0  0
  7  8  1  0  0  0
  7 13  1  0  0  0
  7 26  1  0  0  0
  8 27  1  0  0  0
  8 28  1  0  0  0
  8 48  1  0  0  0
  9 11  1  0  0  0
  9 29  1  0  0  0
  9 30  1  0  0  0
  9 48  1  0  0  0
 10 12  1  0  0  0
 10 31  1  0  0  0
 10 32  1  0  0  0
 10 48  1  0  0  0
 11 12  1  0  0  0
 11 33  1  0  0  0
 11 34  1  0  0  0
 12 35  1  0  0  0
 12 36  1  0  0  0
 13 37  1  0  0  0
 13 38  1  0  0  0
 14 16  1  0  0  0
 14 18  1  0  0  0
 14 19  1  0  0  0
 14 39  1  0  0  0
 15 17  1  0  0  0
 15 40  1  0  0  0
 15 41  1  0  0  0
 17 42  1  0  0  0
 17 43  1  0  0  0
 18 21  1  0  0  0
 18 44  1  0  0  0
 18 45  1  0  0  0
 19 20  1  0  0  0
 19 22  2  0  0  0
 20 21  1  0  0  0
 20 23  2  0  0  0
 22 24  1  0  0  0
 22 46  1  0  0  0
 23 25  1  0  0  0
 23 47  1  0  0  0
 24 25  2  0  0  0
 48 49  1  0  0  0
M  CHG  1  48   1
M  END
> <LID>
L004494

> <PC_CID>
15730164

> <Names>


> <CAS_Numbers>


$$$$
18939000
                    3D
 Structure written by MMmdl.
 66 69  0  0  1  0            999 V2000
   -6.8338    1.9919    0.9685 Cl  0  0  0  0  0  0
   -7.9898   -0.5522   -0.5682 Cl  0  0  0  0  0  0
    0.6381   -1.2265    1.6567 O   0  0  0  0  0  0
   -0.6518   -3.2123    1.3065 O   0  0  0  0  0  0
   -1.9774   -0.7876    1.6238 O   0  0  0  0  0  0
    0.0393   -0.4526    0.6357 N   0  0  0  0  0  0
    1.3073    3.6512   -0.6323 C   0  0  0  0  0  0
    2.3444    3.7960    1.5943 C   0  0  0  0  0  0
    0.9849    1.8171    1.0157 C   0  0  0  0  0  0
    2.3294    4.6495   -1.2013 C   0  0  0  0  0  0
    3.3876    4.7983    1.0725 C   0  0  0  0  0  0
    2.8341    5.6028   -0.1105 C   0  0  0  0  0  0
    0.9624    0.5670    0.0951 C   0  0  1  0  0  0
    2.3733    0.0556   -0.2015 C   0  0  0  0  0  0
    0.6530   -2.6379    1.3781 C   0  0  1  0  0  0
    1.4477   -3.0291    0.1114 C   0  0  0  0  0  0
    1.4703   -4.5504   -0.0764 C   0  0  0  0  0  0
    0.0440   -5.1046   -0.0286 C   0  0  0  0  0  0
   -1.3056   -0.3037    0.7116 C   0  0  0  0  0  0
   -0.6616   -4.6343    1.2509 C   0  0  0  0  0  0
    3.3211   -0.1342    0.8320 C   0  0  0  0  0  0
    2.7504   -0.2112   -1.5365 C   0  0  0  0  0  0
   -2.0045    0.4756   -0.4173 C   0  0  0  0  0  0
    4.6210   -0.5856    0.5333 C   0  0  0  0  0  0
    4.0500   -0.6641   -1.8342 C   0  0  0  0  0  0
    4.9860   -0.8509   -0.7998 C   0  0  0  0  0  0
   -3.5046    0.2254   -0.4524 C   0  0  0  0  0  0
   -4.3889    1.1150    0.1936 C   0  0  0  0  0  0
   -4.0201   -0.8980   -1.1322 C   0  0  0  0  0  0
   -5.7787    0.8843    0.1651 C   0  0  0  0  0  0
   -5.4085   -1.1304   -1.1622 C   0  0  0  0  0  0
   -6.2907   -0.2426   -0.5154 C   0  0  0  0  0  0
    1.0020    2.9730   -1.4281 H   0  0  0  0  0  0
    0.4093    4.1788   -0.3066 H   0  0  0  0  0  0
    1.4901    4.3259    2.0189 H   0  0  0  0  0  0
    2.7881    3.2107    2.4010 H   0  0  0  0  0  0
   -0.0157    2.2275    1.1560 H   0  0  0  0  0  0
    1.3138    1.5098    2.0091 H   0  0  0  0  0  0
    1.8802    5.2200   -2.0149 H   0  0  0  0  0  0
    3.1714    4.1065   -1.6331 H   0  0  0  0  0  0
    3.6890    5.4740    1.8736 H   0  0  0  0  0  0
    4.2875    4.2642    0.7642 H   0  0  0  0  0  0
    2.0180    6.2430    0.2274 H   0  0  0  0  0  0
    3.6037    6.2629   -0.5118 H   0  0  0  0  0  0
    0.5584    0.8716   -0.8689 H   0  0  0  0  0  0
    1.1539   -3.0806    2.2405 H   0  0  0  0  0  0
    2.4740   -2.6747    0.1821 H   0  0  0  0  0  0
    1.0052   -2.5653   -0.7705 H   0  0  0  0  0  0
    2.0675   -5.0082    0.7132 H   0  0  0  0  0  0
    1.9486   -4.8096   -1.0213 H   0  0  0  0  0  0
    0.0597   -6.1939   -0.0738 H   0  0  0  0  0  0
   -0.5144   -4.7614   -0.9004 H   0  0  0  0  0  0
   -0.1826   -5.0499    2.1387 H   0  0  0  0  0  0
   -1.6960   -4.9784    1.2565 H   0  0  0  0  0  0
    3.0576    0.0546    1.8620 H   0  0  0  0  0  0
    2.0439   -0.0733   -2.3420 H   0  0  0  0  0  0
   -1.8167    1.5428   -0.2976 H   0  0  0  0  0  0
   -1.5840    0.1819   -1.3800 H   0  0  0  0  0  0
    5.3376   -0.7320    1.3281 H   0  0  0  0  0  0
    4.3292   -0.8687   -2.8574 H   0  0  0  0  0  0
    5.9825   -1.1991   -1.0286 H   0  0  0  0  0  0
   -4.0019    1.9763    0.7182 H   0  0  0  0  0  0
   -3.3519   -1.5871   -1.6280 H   0  0  0  0  0  0
   -5.7969   -1.9936   -1.6825 H   0  0  0  0  0  0
    1.8809    2.8905    0.5106 N   0  3  0  0  0  0
    2.7092    2.4242    0.1667 H   0  0  0  0  0  0
  1 30  1  0  0  0
  2 32  1  0  0  0
  3  6  1  0  0  0
  3 15  1  0  0  0
  4 15  1  0  0  0
  4 20  1  0  0  0
  5 19  2  0  0  0
  6 13  1  0  0  0
  6 19  1  0  0  0
  7 10  1  0  0  0
  7 33  1  0  0  0
  7 34  1  0  0  0
  7 65  1  0  0  0
  8 11  1  0  0  0
  8 35  1  0  0  0
  8 36  1  0  0  0
  8 65  1  0  0  0
  9 13  1  0  0  0
  9 37  1  0  0  0
  9 38  1  0  0  0
  9 65  1  0  0  0
 10 12  1  0  0  0
 10 39  1  0  0  0
 10 40  1  0  0  0
 11 12  1  0  0  0
 11 41  1  0  0  0
 11 42  1  0  0  0
 12 43  1  0  0  0
 12 44  1  0  0  0
 13 14  1  0  0  0
 13 45  1  0  0  0
 14 21  2  0  0  0
 14 22  1  0  0  0
 15 16  1  0  0  0
 15 46  1  0  0  0
 16 17  1  0  0  0
 16 47  1  0  0  0
 16 48  1  0  0  0
 17 18  1  0  0  0
 17 49  1  0  0  0
 17 50  1  0  0  0
 18 20  1  0  0  0
 18 51  1  0  0  0
 18 52  1  0  0  0
 19 23  1  0  0  0
 20 53  1  0  0  0
 20 54  1  0  0  0
 21 24  1  0  0  0
 21 55  1  0  0  0
 22 25  2  0  0  0
 22 56  1  0  0  0
 23 27  1  0  0  0
 23 57  1  0  0  0
 23 58  1  0  0  0
 24 26  2  0  0  0
 24 59  1  0  0  0
 25 26  1  0  0  0
 25 60  1  0  0  0
 26 61  1  0  0  0
 27 28  2  0  0  0
 27 29  1  0  0  0
 28 30  1  0  0  0
 28 62  1  0  0  0
 29 31  2  0  0  0
 29 63  1  0  0  0
 30 32  2  0  0  0
 31 32  1  0  0  0
 31 64  1  0  0  0
 65 66  1  0  0  0
M  CHG  1  65   1
M  END
> <LID>
L019022

> <PC_CID>
18939000

> <Names>


> <CAS_Numbers>


$$$$
44216273
                    3D
 Structure written by MMmdl.
 68 71  0  0  1  0            999 V2000
   -6.5422   -0.6036   -6.0451 Cl  0  0  0  0  0  0
    5.7283   -1.2954   -3.1116 O   0  0  0  0  0  0
    1.2213   -0.8386    1.8199 O   0  0  0  0  0  0
   -4.3691   -1.7585    0.4192 O   0  0  0  0  0  0
    1.3550    1.2982    1.0641 N   0  0  0  0  0  0
   -2.2501   -1.0409    0.8549 N   0  0  0  0  0  0
   -3.0949   -0.7254   -1.1669 N   0  0  0  0  0  0
    3.8309    0.1201   -2.4961 C   0  0  0  0  0  0
    5.2356    0.0278   -3.0911 C   0  0  1  0  0  0
    5.0826    2.0429   -1.7717 C   0  0  0  0  0  0
    6.0540    0.9219   -2.1610 C   0  0  0  0  0  0
    2.6466    1.8698   -1.0612 C   0  0  0  0  0  0
    2.5614    1.0137    0.2430 C   0  0  1  0  0  0
    3.8338    1.0465    1.0888 C   0  0  0  0  0  0
    0.7602    0.3041    1.7772 C   0  0  0  0  0  0
    0.8312    2.6738    1.0896 C   0  0  0  0  0  0
    4.1876    2.1962    1.8309 C   0  0  0  0  0  0
    4.6718   -0.0897    1.1404 C   0  0  0  0  0  0
   -0.5440    0.6071    2.5449 C   0  0  0  0  0  0
    5.3670    2.2127    2.6002 C   0  0  0  0  0  0
    5.8512   -0.0727    1.9092 C   0  0  0  0  0  0
   -1.2394   -0.6554    3.0522 C   0  0  0  0  0  0
    6.2003    1.0792    2.6383 C   0  0  0  0  0  0
   -2.0849   -1.4296    2.2145 C   0  0  0  0  0  0
   -1.0393   -1.0448    4.3948 C   0  0  0  0  0  0
   -2.6927   -2.5982    2.7359 C   0  0  0  0  0  0
   -1.6611   -2.1980    4.9064 C   0  0  0  0  0  0
   -2.4858   -2.9761    4.0755 C   0  0  0  0  0  0
   -3.3171   -1.2313    0.0593 C   0  0  0  0  0  0
   -3.9559   -0.7344   -2.2982 C   0  0  0  0  0  0
   -3.7340    0.2476   -3.2868 C   0  0  0  0  0  0
   -4.9790   -1.6940   -2.4958 C   0  0  0  0  0  0
   -4.5356    0.2913   -4.4440 C   0  0  0  0  0  0
   -5.7794   -1.6493   -3.6541 C   0  0  0  0  0  0
   -5.5607   -0.6558   -4.6271 C   0  0  0  0  0  0
    3.0506   -0.1353   -3.2137 H   0  0  0  0  0  0
    3.7623   -0.5762   -1.6632 H   0  0  0  0  0  0
    5.2431    0.4390   -4.1018 H   0  0  0  0  0  0
    5.2393    2.9188   -2.4019 H   0  0  0  0  0  0
    5.2378    2.3610   -0.7427 H   0  0  0  0  0  0
    6.9673    1.2943   -2.6261 H   0  0  0  0  0  0
    6.3414    0.3678   -1.2660 H   0  0  0  0  0  0
    2.7757    2.9276   -0.8363 H   0  0  0  0  0  0
    1.6974    1.7859   -1.5919 H   0  0  0  0  0  0
    2.4408   -0.0099   -0.1083 H   0  0  0  0  0  0
    5.2152   -1.8054   -3.7204 H   0  0  0  0  0  0
    0.4637    2.9604    2.0749 H   0  0  0  0  0  0
    1.5805    3.4237    0.8489 H   0  0  0  0  0  0
    0.0121    2.7786    0.3773 H   0  0  0  0  0  0
    3.5658    3.0774    1.8124 H   0  0  0  0  0  0
    4.4163   -0.9838    0.5912 H   0  0  0  0  0  0
   -0.3090    1.2459    3.3969 H   0  0  0  0  0  0
   -1.2371    1.1684    1.9176 H   0  0  0  0  0  0
    5.6328    3.0963    3.1617 H   0  0  0  0  0  0
    6.4872   -0.9451    1.9409 H   0  0  0  0  0  0
    7.1047    1.0921    3.2288 H   0  0  0  0  0  0
   -0.4010   -0.4591    5.0402 H   0  0  0  0  0  0
   -3.3125   -3.2287    2.1166 H   0  0  0  0  0  0
   -1.5000   -2.4889    5.9340 H   0  0  0  0  0  0
   -1.4931   -0.4992    0.4679 H   0  0  0  0  0  0
   -2.9556   -3.8680    4.4632 H   0  0  0  0  0  0
   -2.2260   -0.2297   -1.2943 H   0  0  0  0  0  0
   -2.9495    0.9792   -3.1593 H   0  0  0  0  0  0
   -5.1597   -2.4808   -1.7797 H   0  0  0  0  0  0
   -4.3619    1.0515   -5.1914 H   0  0  0  0  0  0
   -6.5592   -2.3830   -3.7968 H   0  0  0  0  0  0
    3.7190    1.5237   -2.0389 N   0  3  2  0  0  0
    3.4533    2.0246   -2.8751 H   0  0  0  0  0  0
  1 35  1  0  0  0
  2  9  1  0  0  0
  2 46  1  0  0  0
  3 15  2  0  0  0
  4 29  2  0  0  0
  5 13  1  0  0  0
  5 15  1  0  0  0
  5 16  1  0  0  0
  6 24  1  0  0  0
  6 29  1  0  0  0
  6 60  1  0  0  0
  7 29  1  0  0  0
  7 30  1  0  0  0
  7 62  1  0  0  0
  8  9  1  0  0  0
  8 36  1  0  0  0
  8 37  1  0  0  0
  8 67  1  0  0  0
  9 11  1  0  0  0
  9 38  1  0  0  0
 10 11  1  0  0  0
 10 39  1  0  0  0
 10 40  1  0  0  0
 10 67  1  0  0  0
 11 41  1  0  0  0
 11 42  1  0  0  0
 12 13  1  0  0  0
 12 43  1  0  0  0
 12 44  1  0  0  0
 12 67  1  0  0  0
 13 14  1  0  0  0
 13 45  1  0  0  0
 14 17  2  0  0  0
 14 18  1  0  0  0
 15 19  1  0  0  0
 16 47  1  0  0  0
 16 48  1  0  0  0
 16 49  1  0  0  0
 17 20  1  0  0  0
 17 50  1  0  0  0
 18 21  2  0  0  0
 18 51  1  0  0  0
 19 22  1  0  0  0
 19 52  1  0  0  0
 19 53  1  0  0  0
 20 23  2  0  0  0
 20 54  1  0  0  0
 21 23  1  0  0  0
 21 55  1  0  0  0
 22 24  1  0  0  0
 22 25  2  0  0  0
 23 56  1  0  0  0
 24 26  2  0  0  0
 25 27  1  0  0  0
 25 57  1  0  0  0
 26 28  1  0  0  0
 26 58  1  0  0  0
 27 28  2  0  0  0
 27 59  1  0  0  0
 28 61  1  0  0  0
 30 31  2  0  0  0
 30 32  1  0  0  0
 31 33  1  0  0  0
 31 63  1  0  0  0
 32 34  2  0  0  0
 32 64  1  0  0  0
 33 35  2  0  0  0
 33 65  1  0  0  0
 34 35  1  0  0  0
 34 66  1  0  0  0
 67 68  1  0  0  0
M  CHG  1  67   1
M  END
> <LID>
L023611

> <PC_CID>
44216273

> <Names>


> <CAS_Numbers>


$$$$
430245
                    3D
 Structure written by MMmdl.
 38 42  0  0  1  0            999 V2000
    1.3368    1.3583    1.1689 O   0  0  0  0  0  0
   -0.3316    3.9543    0.0224 O   0  0  0  0  0  0
    3.9796    0.1503    0.5459 O   0  0  0  0  0  0
   -0.7176    0.3177    0.6571 C   0  0  2  0  0  0
   -1.9431    0.2804   -0.2666 C   0  0  2  0  0  0
   -0.0370    1.7007    0.8843 C   0  0  2  0  0  0
   -2.2370   -1.2065   -0.5699 C   0  0  1  0  0  0
    0.4325   -0.4554    0.0845 C   0  0  0  0  0  0
   -1.1589   -0.3262    1.9960 C   0  0  0  0  0  0
   -1.0460   -1.9410   -1.2447 C   0  0  0  0  0  0
    0.3548   -1.5851   -0.7438 C   0  0  0  0  0  0
   -1.6573   -1.7749    1.8038 C   0  0  0  0  0  0
   -0.0214    2.6332   -0.3680 C   0  0  1  0  0  0
   -1.7727    1.1674   -1.4806 C   0  0  0  0  0  0
    1.5793    0.1860    0.5071 C   0  0  0  0  0  0
   -0.9339    2.2143   -1.5114 C   0  0  0  0  0  0
    1.5907   -2.1663   -1.0993 C   0  0  0  0  0  0
    2.8033   -0.4164    0.1528 C   0  0  0  0  0  0
    2.8039   -1.5967   -0.6338 C   0  0  0  0  0  0
   -2.8032    0.7064    0.2532 H   0  0  0  0  0  0
   -0.4911    2.2114    1.7352 H   0  0  0  0  0  0
   -3.1025   -1.2797   -1.2296 H   0  0  0  0  0  0
   -1.9529    0.2726    2.4445 H   0  0  0  0  0  0
   -0.3384   -0.3197    2.7151 H   0  0  0  0  0  0
   -1.0546   -1.7008   -2.3084 H   0  0  0  0  0  0
   -1.1813   -3.0216   -1.1857 H   0  0  0  0  0  0
   -0.8198   -2.4434    1.6034 H   0  0  0  0  0  0
   -2.1197   -2.1383    2.7217 H   0  0  0  0  0  0
    0.9856    2.6566   -0.7868 H   0  0  0  0  0  0
   -2.3910    0.9510   -2.3395 H   0  0  0  0  0  0
   -0.8805    2.8146   -2.4081 H   0  0  0  0  0  0
    1.6154   -3.0329   -1.7436 H   0  0  0  0  0  0
    3.7438   -2.0494   -0.9143 H   0  0  0  0  0  0
   -0.1609    4.5331   -0.7049 H   0  0  0  0  0  0
    3.8491    0.9359    1.0553 H   0  0  0  0  0  0
   -2.6390   -1.8778    0.6959 N   0  3  0  0  0  0
   -2.8233   -2.8536    0.5102 H   0  0  0  0  0  0
   -3.4973   -1.4463    1.0082 H   0  0  0  0  0  0
  1  6  1  0  0  0
  1 15  1  0  0  0
  2 13  1  0  0  0
  2 34  1  0  0  0
  3 18  1  0  0  0
  3 35  1  0  0  0
  4  5  1  0  0  0
  4  6  1  0  0  0
  4  8  1  0  0  0
  4  9  1  0  0  0
  5  7  1  0  0  0
  5 14  1  0  0  0
  5 20  1  0  0  0
  6 13  1  0  0  0
  6 21  1  0  0  0
  7 10  1  0  0  0
  7 22  1  0  0  0
  7 36  1  0  0  0
  8 11  2  0  0  0
  8 15  1  0  0  0
  9 12  1  0  0  0
  9 23  1  0  0  0
  9 24  1  0  0  0
 10 11  1  0  0  0
 10 25  1  0  0  0
 10 26  1  0  0  0
 11 17  1  0  0  0
 12 27  1  0  0  0
 12 28  1  0  0  0
 12 36  1  0  0  0
 13 16  1  0  0  0
 13 29  1  0  0  0
 14 16  2  0  0  0
 14 30  1  0  0  0
 15 18  2  0  0  0
 16 31  1  0  0  0
 17 19  2  0  0  0
 17 32  1  0  0  0
 18 19  1  0  0  0
 19 33  1  0  0  0
 36 37  1  0  0  0
 36 38  1  0  0  0
M  CHG  1  36   1
M  END
> <LID>
L024017

> <PC_CID>
430245

> <Names>
normorphine

> <CAS_Numbers>
466-97-7

$$$$
14476600
                    3D
 Structure written by MMmdl.
 58 62  0  0  1  0            999 V2000
    6.2024    2.0224   -0.1811 S   0  0  0  0  0  0
    0.9859    0.8397   -0.7261 O   0  0  0  0  0  0
   -0.6496    0.0518    0.6336 N   0  0  0  0  0  0
   -2.6758   -0.9167   -0.5495 C   0  0  1  0  0  0
   -1.7615    0.3459   -0.3079 C   0  0  1  0  0  0
   -4.1391   -0.5171   -0.8256 C   0  0  0  0  0  0
   -2.7174   -3.2557   -1.3975 C   0  0  0  0  0  0
   -0.7734   -2.0592   -1.8451 C   0  0  0  0  0  0
   -2.4967    1.6106    0.1706 C   0  0  0  0  0  0
   -4.7059    0.3565    0.2901 C   0  0  0  0  0  0
   -1.5852   -4.0205   -0.6949 C   0  0  0  0  0  0
   -0.3320   -3.1611   -0.8833 C   0  0  0  0  0  0
   -3.8817    1.6105    0.4688 C   0  0  0  0  0  0
   -1.7705    2.8155    0.3185 C   0  0  0  0  0  0
   -4.5114    2.7872    0.9260 C   0  0  0  0  0  0
   -1.0425   -0.3719    1.9861 C   0  0  0  0  0  0
    0.6509    0.2949    0.3274 C   0  0  0  0  0  0
   -2.4017    3.9891    0.7710 C   0  0  0  0  0  0
   -3.7733    3.9746    1.0792 C   0  0  0  0  0  0
    1.7459   -0.1547    1.3158 C   0  0  0  0  0  0
    3.0993   -0.3213    0.6362 C   0  0  0  0  0  0
    3.9806    0.7886    0.5245 C   0  0  0  0  0  0
    3.4506   -1.5886    0.1224 C   0  0  0  0  0  0
    5.2357    0.5549   -0.1279 C   0  0  0  0  0  0
    3.8478    2.1669    0.9566 C   0  0  0  0  0  0
    4.6884   -1.7842   -0.5126 C   0  0  0  0  0  0
    5.5836   -0.7096   -0.6370 C   0  0  0  0  0  0
    4.9567    2.9103    0.6397 C   0  0  0  0  0  0
   -2.7081   -1.4872    0.3784 H   0  0  0  0  0  0
   -1.3850    0.6448   -1.2869 H   0  0  0  0  0  0
   -4.1992    0.0208   -1.7731 H   0  0  0  0  0  0
   -4.7770   -1.3936   -0.9343 H   0  0  0  0  0  0
   -2.8992   -3.7021   -2.3763 H   0  0  0  0  0  0
   -3.6546   -3.3158   -0.8443 H   0  0  0  0  0  0
   -0.1659   -1.1628   -1.8139 H   0  0  0  0  0  0
   -0.6643   -2.4352   -2.8636 H   0  0  0  0  0  0
   -5.7381    0.6234    0.0598 H   0  0  0  0  0  0
   -4.7221   -0.1910    1.2332 H   0  0  0  0  0  0
   -1.4623   -5.0164   -1.1222 H   0  0  0  0  0  0
   -1.7996   -4.1426    0.3676 H   0  0  0  0  0  0
   -0.0298   -2.7319    0.0721 H   0  0  0  0  0  0
    0.5133   -3.7304   -1.2712 H   0  0  0  0  0  0
   -0.7168    2.8488    0.0851 H   0  0  0  0  0  0
   -5.5667    2.7844    1.1570 H   0  0  0  0  0  0
   -0.8341   -1.4322    2.1326 H   0  0  0  0  0  0
   -0.5141    0.1943    2.7543 H   0  0  0  0  0  0
   -2.1049   -0.2183    2.1764 H   0  0  0  0  0  0
   -1.8326    4.9004    0.8818 H   0  0  0  0  0  0
   -4.2598    4.8739    1.4274 H   0  0  0  0  0  0
    1.8221    0.5695    2.1271 H   0  0  0  0  0  0
    1.4802   -1.1087    1.7718 H   0  0  0  0  0  0
    2.7658   -2.4192    0.2133 H   0  0  0  0  0  0
    2.9776    2.5567    1.4629 H   0  0  0  0  0  0
    4.9504   -2.7567   -0.9032 H   0  0  0  0  0  0
    6.5372   -0.8522   -1.1237 H   0  0  0  0  0  0
    5.1147    3.9586    0.8471 H   0  0  0  0  0  0
   -2.2233   -1.8739   -1.6157 N   0  3  0  0  0  0
   -2.6147   -1.5247   -2.4791 H   0  0  0  0  0  0
  1 24  1  0  0  0
  1 28  1  0  0  0
  2 17  2  0  0  0
  3  5  1  0  0  0
  3 16  1  0  0  0
  3 17  1  0  0  0
  4  5  1  0  0  0
  4  6  1  0  0  0
  4 29  1  0  0  0
  4 57  1  0  0  0
  5  9  1  0  0  0
  5 30  1  0  0  0
  6 10  1  0  0  0
  6 31  1  0  0  0
  6 32  1  0  0  0
  7 11  1  0  0  0
  7 33  1  0  0  0
  7 34  1  0  0  0
  7 57  1  0  0  0
  8 12  1  0  0  0
  8 35  1  0  0  0
  8 36  1  0  0  0
  8 57  1  0  0  0
  9 13  1  0  0  0
  9 14  2  0  0  0
 10 13  1  0  0  0
 10 37  1  0  0  0
 10 38  1  0  0  0
 11 12  1  0  0  0
 11 39  1  0  0  0
 11 40  1  0  0  0
 12 41  1  0  0  0
 12 42  1  0  0  0
 13 15  2  0  0  0
 14 18  1  0  0  0
 14 43  1  0  0  0
 15 19  1  0  0  0
 15 44  1  0  0  0
 16 45  1  0  0  0
 16 46  1  0  0  0
 16 47  1  0  0  0
 17 20  1  0  0  0
 18 19  2  0  0  0
 18 48  1  0  0  0
 19 49  1  0  0  0
 20 21  1  0  0  0
 20 50  1  0  0  0
 20 51  1  0  0  0
 21 22  2  0  0  0
 21 23  1  0  0  0
 22 24  1  0  0  0
 22 25  1  0  0  0
 23 26  2  0  0  0
 23 52  1  0  0  0
 24 27  2  0  0  0
 25 28  2  0  0  0
 25 53  1  0  0  0
 26 27  1  0  0  0
 26 54  1  0  0  0
 27 55  1  0  0  0
 28 56  1  0  0  0
 57 58  1  0  0  0
M  CHG  1  57   1
M  END
> <LID>
L003170

> <PC_CID>
14476600

> <Names>


> <CAS_Numbers>


$$$$
44214647
                    3D
 Structure written by MMmdl.
 81 88  0  0  1  0            999 V2000
    7.6283   -2.6472    1.7632 O   0  0  0  0  0  0
    4.6821   -2.6574    1.4600 O   0  0  0  0  0  0
    5.4991   -0.8547   -1.8027 O   0  0  0  0  0  0
    9.4864   -3.7288    3.7893 O   0  0  0  0  0  0
    3.3534   -1.4390   -1.4141 N   0  0  0  0  0  0
    7.6755   -0.3520    1.0357 C   0  0  2  0  0  0
    6.7543    0.8187    1.4767 C   0  0  1  0  0  0
    6.8956   -1.7122    0.9426 C   0  0  2  0  0  0
    7.6887    2.0526    1.6048 C   0  0  1  0  0  0
    5.4207   -1.4546    1.4032 C   0  0  1  0  0  0
    5.5667    0.9348    0.4725 C   0  0  0  0  0  0
    4.7443   -0.4106    0.4304 C   0  0  1  0  0  0
    8.4395   -0.0450   -0.2803 C   0  0  0  0  0  0
    8.6357   -0.6067    2.1550 C   0  0  0  0  0  0
    6.0885    0.4097    2.7950 C   0  0  0  0  0  0
    8.8418    1.8284    2.6440 C   0  0  0  0  0  0
    9.1479    1.3179   -0.2686 C   0  0  0  0  0  0
    5.4444   -0.7681    2.7639 C   0  0  0  0  0  0
    9.3179    0.3849    2.8802 C   0  0  0  0  0  0
    8.5926   -1.9557    2.4412 C   0  0  0  0  0  0
    4.5486   -0.9245   -1.0231 C   0  0  0  0  0  0
    8.7454    3.7543    0.0919 C   0  0  0  0  0  0
   10.1769   -0.0868    3.8954 C   0  0  0  0  0  0
    9.4589   -2.4064    3.4580 C   0  0  0  0  0  0
   10.2716   -1.4775    4.1561 C   0  0  0  0  0  0
    8.5554    4.2558   -1.3520 C   0  0  0  0  0  0
    3.1545   -2.0039   -2.7604 C   0  0  0  0  0  0
    2.1621   -1.4843   -0.5610 C   0  0  0  0  0  0
    7.1192    4.1022   -1.8252 C   0  0  0  0  0  0
    3.2627   -3.5446   -2.7853 C   0  0  0  0  0  0
    6.1268    5.0044   -1.3882 C   0  0  0  0  0  0
    6.7638    3.0297   -2.6718 C   0  0  0  0  0  0
    4.5578   -4.0866   -2.2015 C   0  0  0  0  0  0
    4.7876    4.8304   -1.7888 C   0  0  0  0  0  0
    5.4241    2.8542   -3.0684 C   0  0  0  0  0  0
    4.4356    3.7541   -2.6262 C   0  0  0  0  0  0
    4.5497   -4.7776   -0.9713 C   0  0  0  0  0  0
    5.7785   -3.8883   -2.8808 C   0  0  0  0  0  0
    5.7549   -5.2509   -0.4168 C   0  0  0  0  0  0
    6.9836   -4.3596   -2.3248 C   0  0  0  0  0  0
    6.9725   -5.0389   -1.0914 C   0  0  0  0  0  0
    6.9149   -2.1135   -0.0700 H   0  0  0  0  0  0
    7.0853    2.9030    1.9252 H   0  0  0  0  0  0
    4.9085    1.7449    0.7903 H   0  0  0  0  0  0
    5.9149    1.2381   -0.5134 H   0  0  0  0  0  0
    3.7700   -0.1631    0.8492 H   0  0  0  0  0  0
    9.1596   -0.8358   -0.4948 H   0  0  0  0  0  0
    7.7492   -0.0487   -1.1201 H   0  0  0  0  0  0
    6.1747    1.0210    3.6812 H   0  0  0  0  0  0
    8.4808    2.1737    3.6133 H   0  0  0  0  0  0
    9.7043    2.4585    2.4265 H   0  0  0  0  0  0
    9.4597    1.5596   -1.2843 H   0  0  0  0  0  0
   10.0627    1.2743    0.3225 H   0  0  0  0  0  0
    4.9435   -1.2020    3.6169 H   0  0  0  0  0  0
    8.1978    4.4258    0.7542 H   0  0  0  0  0  0
    9.7927    3.8152    0.3905 H   0  0  0  0  0  0
    4.8436   -3.1485    0.6678 H   0  0  0  0  0  0
   10.7243    0.6131    4.5095 H   0  0  0  0  0  0
   10.9227   -1.8262    4.9444 H   0  0  0  0  0  0
    8.8371    5.3076   -1.4154 H   0  0  0  0  0  0
    9.2224    3.7282   -2.0342 H   0  0  0  0  0  0
    2.1767   -1.7036   -3.1395 H   0  0  0  0  0  0
    3.8627   -1.5822   -3.4751 H   0  0  0  0  0  0
    8.8837   -4.2415    3.2721 H   0  0  0  0  0  0
    1.3359   -2.0139   -1.0366 H   0  0  0  0  0  0
    2.3619   -1.9990    0.3783 H   0  0  0  0  0  0
    1.8116   -0.4759   -0.3385 H   0  0  0  0  0  0
    2.4197   -3.9776   -2.2454 H   0  0  0  0  0  0
    3.1717   -3.8991   -3.8125 H   0  0  0  0  0  0
    6.3874    5.8265   -0.7376 H   0  0  0  0  0  0
    7.5131    2.3282   -3.0090 H   0  0  0  0  0  0
    4.0290    5.5209   -1.4504 H   0  0  0  0  0  0
    5.1544    2.0268   -3.7084 H   0  0  0  0  0  0
    3.4079    3.6194   -2.9299 H   0  0  0  0  0  0
    3.6214   -4.9366   -0.4421 H   0  0  0  0  0  0
    5.7945   -3.3594   -3.8225 H   0  0  0  0  0  0
    5.7459   -5.7724    0.5291 H   0  0  0  0  0  0
    7.9169   -4.1969   -2.8433 H   0  0  0  0  0  0
    7.8969   -5.3978   -0.6635 H   0  0  0  0  0  0
    8.2363    2.3686    0.2525 N   0  3  2  0  0  0
    7.4251    2.3435   -0.3499 H   0  0  0  0  0  0
  1  8  1  0  0  0
  1 20  1  0  0  0
  2 10  1  0  0  0
  2 57  1  0  0  0
  3 21  2  0  0  0
  4 24  1  0  0  0
  4 64  1  0  0  0
  5 21  1  0  0  0
  5 27  1  0  0  0
  5 28  1  0  0  0
  6  7  1  0  0  0
  6  8  1  0  0  0
  6 13  1  0  0  0
  6 14  1  0  0  0
  7  9  1  0  0  0
  7 11  1  0  0  0
  7 15  1  0  0  0
  8 10  1  0  0  0
  8 42  1  0  0  0
  9 16  1  0  0  0
  9 43  1  0  0  0
  9 80  1  0  0  0
 10 12  1  0  0  0
 10 18  1  0  0  0
 11 12  1  0  0  0
 11 44  1  0  0  0
 11 45  1  0  0  0
 12 21  1  0  0  0
 12 46  1  0  0  0
 13 17  1  0  0  0
 13 47  1  0  0  0
 13 48  1  0  0  0
 14 19  2  0  0  0
 14 20  1  0  0  0
 15 18  2  0  0  0
 15 49  1  0  0  0
 16 19  1  0  0  0
 16 50  1  0  0  0
 16 51  1  0  0  0
 17 52  1  0  0  0
 17 53  1  0  0  0
 17 80  1  0  0  0
 18 54  1  0  0  0
 19 23  1  0  0  0
 20 24  2  0  0  0
 22 26  1  0  0  0
 22 55  1  0  0  0
 22 56  1  0  0  0
 22 80  1  0  0  0
 23 25  2  0  0  0
 23 58  1  0  0  0
 24 25  1  0  0  0
 25 59  1  0  0  0
 26 29  1  0  0  0
 26 60  1  0  0  0
 26 61  1  0  0  0
 27 30  1  0  0  0
 27 62  1  0  0  0
 27 63  1  0  0  0
 28 65  1  0  0  0
 28 66  1  0  0  0
 28 67  1  0  0  0
 29 31  2  0  0  0
 29 32  1  0  0  0
 30 33  1  0  0  0
 30 68  1  0  0  0
 30 69  1  0  0  0
 31 34  1  0  0  0
 31 70  1  0  0  0
 32 35  2  0  0  0
 32 71  1  0  0  0
 33 37  2  0  0  0
 33 38  1  0  0  0
 34 36  2  0  0  0
 34 72  1  0  0  0
 35 36  1  0  0  0
 35 73  1  0  0  0
 36 74  1  0  0  0
 37 39  1  0  0  0
 37 75  1  0  0  0
 38 40  2  0  0  0
 38 76  1  0  0  0
 39 41  2  0  0  0
 39 77  1  0  0  0
 40 41  1  0  0  0
 40 78  1  0  0  0
 41 79  1  0  0  0
 80 81  1  0  0  0
M  CHG  1  80   1
M  END
> <LID>
L018284

> <PC_CID>
44214647

> <Names>


> <CAS_Numbers>


$$$$
44216274
                    3D
 Structure written by MMmdl.
 71 74  0  0  1  0            999 V2000
  -10.6916   -0.2819    2.0790 F   0  0  0  0  0  0
   -9.9321    1.7452    2.1872 F   0  0  0  0  0  0
  -10.5142    0.8993    0.2784 F   0  0  0  0  0  0
    5.0812    5.6487    1.0016 O   0  0  0  0  0  0
    2.5189   -0.1826   -1.0708 O   0  0  0  0  0  0
   -4.0993   -1.1069   -1.3905 O   0  0  0  0  0  0
    4.1292   -0.8325    0.3919 N   0  0  0  0  0  0
   -2.5360   -1.8779    0.0812 N   0  0  0  0  0  0
   -4.5229   -1.2699    0.8450 N   0  0  0  0  0  0
    4.8299    3.3631    1.8360 C   0  0  0  0  0  0
    5.7035    4.6129    1.7322 C   0  0  1  0  0  0
    7.1146    2.6629    1.5556 C   0  0  0  0  0  0
    6.9526    4.0919    1.0232 C   0  0  0  0  0  0
    5.3450    0.8619    1.8601 C   0  0  0  0  0  0
    4.7188    0.5300    0.4679 C   0  0  1  0  0  0
    5.6508    0.8043   -0.7119 C   0  0  0  0  0  0
    3.0239   -1.0609   -0.3677 C   0  0  0  0  0  0
    4.7717   -1.9189    1.1496 C   0  0  0  0  0  0
    6.7590   -0.0321   -0.9773 C   0  0  0  0  0  0
    5.4032    1.9067   -1.5600 C   0  0  0  0  0  0
    2.3712   -2.4590   -0.3406 C   0  0  0  0  0  0
    7.6119    0.2388   -2.0646 C   0  0  0  0  0  0
    6.2564    2.1775   -2.6467 C   0  0  0  0  0  0
    0.9870   -2.4725   -0.9736 C   0  0  0  0  0  0
    7.3624    1.3446   -2.8987 C   0  0  0  0  0  0
   -0.1518   -2.1731   -0.1959 C   0  0  0  0  0  0
    0.8345   -2.7900   -2.3390 C   0  0  0  0  0  0
   -1.4389   -2.1739   -0.7733 C   0  0  0  0  0  0
   -0.4472   -2.8099   -2.9194 C   0  0  0  0  0  0
   -1.5816   -2.5082   -2.1418 C   0  0  0  0  0  0
   -3.7478   -1.3952   -0.2472 C   0  0  0  0  0  0
   -5.8561   -0.7844    0.9349 C   0  0  0  0  0  0
   -6.6225   -1.2007    2.0429 C   0  0  0  0  0  0
   -6.4251    0.1194    0.0055 C   0  0  0  0  0  0
   -8.5208    0.1350    1.2708 C   0  0  0  0  0  0
   -7.9456   -0.7480    2.2089 C   0  0  0  0  0  0
   -7.7484    0.5716    0.1735 C   0  0  0  0  0  0
   -9.9472    0.6320    1.4554 C   0  0  0  0  0  0
    4.0790    3.4368    2.6231 H   0  0  0  0  0  0
    4.3121    3.2244    0.8894 H   0  0  0  0  0  0
    5.9655    4.9717    2.7288 H   0  0  0  0  0  0
    7.4938    1.9945    0.7852 H   0  0  0  0  0  0
    7.8322    2.6411    2.3764 H   0  0  0  0  0  0
    7.8311    4.7131    1.2006 H   0  0  0  0  0  0
    6.7846    4.0574   -0.0544 H   0  0  0  0  0  0
    6.2098    0.2337    2.0684 H   0  0  0  0  0  0
    4.6100    0.6322    2.6326 H   0  0  0  0  0  0
    3.8791    1.2169    0.3742 H   0  0  0  0  0  0
    4.3323    5.9607    1.4872 H   0  0  0  0  0  0
    4.2612   -2.0678    2.1016 H   0  0  0  0  0  0
    4.7625   -2.8645    0.6073 H   0  0  0  0  0  0
    5.8220   -1.7338    1.3600 H   0  0  0  0  0  0
    6.9716   -0.8820   -0.3484 H   0  0  0  0  0  0
    4.5560    2.5530   -1.3843 H   0  0  0  0  0  0
    3.0107   -3.1657   -0.8707 H   0  0  0  0  0  0
    2.2813   -2.8124    0.6873 H   0  0  0  0  0  0
    8.4590   -0.4026   -2.2587 H   0  0  0  0  0  0
    6.0607    3.0239   -3.2885 H   0  0  0  0  0  0
    8.0167    1.5517   -3.7328 H   0  0  0  0  0  0
   -0.0330   -1.9318    0.8506 H   0  0  0  0  0  0
    1.6992   -3.0208   -2.9440 H   0  0  0  0  0  0
   -0.5618   -3.0616   -3.9635 H   0  0  0  0  0  0
   -2.5513   -2.5525   -2.6130 H   0  0  0  0  0  0
   -2.3521   -1.9866    1.0670 H   0  0  0  0  0  0
   -4.1380   -1.6259    1.7068 H   0  0  0  0  0  0
   -6.1997   -1.8765    2.7721 H   0  0  0  0  0  0
   -5.8612    0.4913   -0.8360 H   0  0  0  0  0  0
   -8.5167   -1.0801    3.0634 H   0  0  0  0  0  0
   -8.1662    1.2631   -0.5433 H   0  0  0  0  0  0
    5.7904    2.2664    2.0935 N   0  3  2  0  0  0
    5.9367    2.3095    3.0922 H   0  0  0  0  0  0
  1 38  1  0  0  0
  2 38  1  0  0  0
  3 38  1  0  0  0
  4 11  1  0  0  0
  4 49  1  0  0  0
  5 17  2  0  0  0
  6 31  2  0  0  0
  7 15  1  0  0  0
  7 17  1  0  0  0
  7 18  1  0  0  0
  8 28  1  0  0  0
  8 31  1  0  0  0
  8 64  1  0  0  0
  9 31  1  0  0  0
  9 32  1  0  0  0
  9 65  1  0  0  0
 10 11  1  0  0  0
 10 39  1  0  0  0
 10 40  1  0  0  0
 10 70  1  0  0  0
 11 13  1  0  0  0
 11 41  1  0  0  0
 12 13  1  0  0  0
 12 42  1  0  0  0
 12 43  1  0  0  0
 12 70  1  0  0  0
 13 44  1  0  0  0
 13 45  1  0  0  0
 14 15  1  0  0  0
 14 46  1  0  0  0
 14 47  1  0  0  0
 14 70  1  0  0  0
 15 16  1  0  0  0
 15 48  1  0  0  0
 16 19  2  0  0  0
 16 20  1  0  0  0
 17 21  1  0  0  0
 18 50  1  0  0  0
 18 51  1  0  0  0
 18 52  1  0  0  0
 19 22  1  0  0  0
 19 53  1  0  0  0
 20 23  2  0  0  0
 20 54  1  0  0  0
 21 24  1  0  0  0
 21 55  1  0  0  0
 21 56  1  0  0  0
 22 25  2  0  0  0
 22 57  1  0  0  0
 23 25  1  0  0  0
 23 58  1  0  0  0
 24 26  2  0  0  0
 24 27  1  0  0  0
 25 59  1  0  0  0
 26 28  1  0  0  0
 26 60  1  0  0  0
 27 29  2  0  0  0
 27 61  1  0  0  0
 28 30  2  0  0  0
 29 30  1  0  0  0
 29 62  1  0  0  0
 30 63  1  0  0  0
 32 33  2  0  0  0
 32 34  1  0  0  0
 33 36  1  0  0  0
 33 66  1  0  0  0
 34 37  2  0  0  0
 34 67  1  0  0  0
 35 36  2  0  0  0
 35 37  1  0  0  0
 35 38  1  0  0  0
 36 68  1  0  0  0
 37 69  1  0  0  0
 70 71  1  0  0  0
M  CHG  1  70   1
M  END
> <LID>
L023612

> <PC_CID>
44216274

> <Names>


> <CAS_Numbers>


$$$$
15130836
                    3D
 Structure written by MMmdl.
 53 55  0  0  1  0            999 V2000
   -5.9416    3.1714   -0.2184 Cl  0  0  0  0  0  0
   -7.4742    0.6311   -1.3882 Cl  0  0  0  0  0  0
   -1.1451    0.1378   -0.6721 O   0  0  0  0  0  0
    0.2850    0.2729    1.0846 N   0  0  0  0  0  0
    3.3363   -4.0029    0.5761 N   0  0  0  0  0  0
    3.2070    2.8057   -1.1232 C   0  0  0  0  0  0
    4.8506    2.3106    0.5352 C   0  0  0  0  0  0
    2.5508    1.4230    0.8646 C   0  0  0  0  0  0
    4.3550    3.8169   -1.2442 C   0  0  0  0  0  0
    5.5319    3.1489   -0.5409 C   0  0  0  0  0  0
    1.4491    0.5515    0.2058 C   0  0  1  0  0  0
    2.0274   -0.7194   -0.4155 C   0  0  0  0  0  0
   -0.9548    0.1256    0.5463 C   0  0  0  0  0  0
    0.5093    0.1661    2.5355 C   0  0  0  0  0  0
    2.4219   -1.8111    0.3903 C   0  0  0  0  0  0
    2.1803   -0.8065   -1.8168 C   0  0  0  0  0  0
   -2.1652   -0.0486    1.4873 C   0  0  0  0  0  0
    2.9626   -2.9728   -0.1965 C   0  0  0  0  0  0
    2.7201   -1.9666   -2.4040 C   0  0  0  0  0  0
    3.1120   -3.0496   -1.5951 C   0  0  0  0  0  0
   -3.4953    0.1273    0.7685 C   0  0  0  0  0  0
   -4.0553    1.4136    0.6179 C   0  0  0  0  0  0
   -4.1775   -0.9938    0.2511 C   0  0  0  0  0  0
   -5.2855    1.5820   -0.0482 C   0  0  0  0  0  0
   -5.4072   -0.8281   -0.4143 C   0  0  0  0  0  0
   -5.9643    0.4570   -0.5664 C   0  0  0  0  0  0
    2.2787    3.3156   -0.8610 H   0  0  0  0  0  0
    3.0420    2.2863   -2.0677 H   0  0  0  0  0  0
    5.4782    1.4927    0.8909 H   0  0  0  0  0  0
    4.6019    2.9434    1.3891 H   0  0  0  0  0  0
    3.0444    0.8675    1.6615 H   0  0  0  0  0  0
    2.1208    2.3168    1.3197 H   0  0  0  0  0  0
    4.5783    4.0793   -2.2788 H   0  0  0  0  0  0
    4.0903    4.7359   -0.7192 H   0  0  0  0  0  0
    6.2462    3.8650   -0.1334 H   0  0  0  0  0  0
    6.0637    2.5001   -1.2385 H   0  0  0  0  0  0
    1.0778    1.1627   -0.6187 H   0  0  0  0  0  0
   -0.1168   -0.5974    2.9974 H   0  0  0  0  0  0
    1.5264   -0.1198    2.7922 H   0  0  0  0  0  0
    0.2969    1.1194    3.0207 H   0  0  0  0  0  0
    2.3151   -1.7615    1.4630 H   0  0  0  0  0  0
    1.8804    0.0146   -2.4514 H   0  0  0  0  0  0
   -2.1318   -1.0413    1.9376 H   0  0  0  0  0  0
   -2.1174    0.6772    2.3001 H   0  0  0  0  0  0
    2.8323   -2.0266   -3.4766 H   0  0  0  0  0  0
    3.5254   -3.9364   -2.0537 H   0  0  0  0  0  0
    3.6227   -4.8809    0.1669 H   0  0  0  0  0  0
    3.1329   -4.0132    1.5652 H   0  0  0  0  0  0
   -3.5385    2.2769    1.0111 H   0  0  0  0  0  0
   -3.7577   -1.9833    0.3592 H   0  0  0  0  0  0
   -5.9236   -1.6903   -0.8100 H   0  0  0  0  0  0
    3.6116    1.8135   -0.0967 N   0  3  0  0  0  0
    3.8763    0.9776   -0.5994 H   0  0  0  0  0  0
  1 24  1  0  0  0
  2 26  1  0  0  0
  3 13  2  0  0  0
  4 11  1  0  0  0
  4 13  1  0  0  0
  4 14  1  0  0  0
  5 18  1  0  0  0
  5 47  1  0  0  0
  5 48  1  0  0  0
  6  9  1  0  0  0
  6 27  1  0  0  0
  6 28  1  0  0  0
  6 52  1  0  0  0
  7 10  1  0  0  0
  7 29  1  0  0  0
  7 30  1  0  0  0
  7 52  1  0  0  0
  8 11  1  0  0  0
  8 31  1  0  0  0
  8 32  1  0  0  0
  8 52  1  0  0  0
  9 10  1  0  0  0
  9 33  1  0  0  0
  9 34  1  0  0  0
 10 35  1  0  0  0
 10 36  1  0  0  0
 11 12  1  0  0  0
 11 37  1  0  0  0
 12 15  2  0  0  0
 12 16  1  0  0  0
 13 17  1  0  0  0
 14 38  1  0  0  0
 14 39  1  0  0  0
 14 40  1  0  0  0
 15 18  1  0  0  0
 15 41  1  0  0  0
 16 19  2  0  0  0
 16 42  1  0  0  0
 17 21  1  0  0  0
 17 43  1  0  0  0
 17 44  1  0  0  0
 18 20  2  0  0  0
 19 20  1  0  0  0
 19 45  1  0  0  0
 20 46  1  0  0  0
 21 22  2  0  0  0
 21 23  1  0  0  0
 22 24  1  0  0  0
 22 49  1  0  0  0
 23 25  2  0  0  0
 23 50  1  0  0  0
 24 26  2  0  0  0
 25 26  1  0  0  0
 25 51  1  0  0  0
 52 53  1  0  0  0
M  CHG  1  52   1
M  END
> <LID>
L005618

> <PC_CID>
15130836

> <Names>


> <CAS_Numbers>
115200-89-0;125190-65-0

$$$$
21219410
                    3D
 Structure written by MMmdl.
 48 51  0  0  1  0            999 V2000
   -0.5878    4.4113   -0.7356 O   0  0  0  0  0  0
   -4.3077   -1.7083    1.9884 O   0  0  0  0  0  0
   -0.6564    0.8605   -0.1941 C   0  0  2  0  0  0
    0.1867    0.8132    1.1293 C   0  0  1  0  0  0
    0.3747    0.7606   -1.3611 C   0  0  0  0  0  0
    1.0653   -0.4557    1.1885 C   0  0  0  0  0  0
    4.2123   -1.4596   -0.6577 C   0  0  0  0  0  0
    1.2866   -0.4812   -1.2614 C   0  0  0  0  0  0
    2.9452   -1.6684    0.1532 C   0  0  0  0  0  0
   -1.4435    2.1965   -0.2915 C   0  0  0  0  0  0
    1.0333    2.0899    1.3744 C   0  0  0  0  0  0
    5.4580   -2.2507   -0.3299 C   0  0  0  0  0  0
    5.4143   -0.7677   -0.0565 C   0  0  0  0  0  0
   -1.7197   -0.2672   -0.2343 C   0  0  0  0  0  0
    0.2141    3.3870    1.2965 C   0  0  0  0  0  0
   -0.5975    3.4327    0.0074 C   0  0  0  0  0  0
   -2.5486   -0.5002    0.8927 C   0  0  0  0  0  0
   -1.9525   -1.0535   -1.3928 C   0  0  0  0  0  0
   -3.5345   -1.5056    0.8828 C   0  0  0  0  0  0
   -2.9368   -2.0603   -1.4050 C   0  0  0  0  0  0
   -3.7254   -2.2934   -0.2656 C   0  0  0  0  0  0
   -0.4834    0.7759    1.9855 H   0  0  0  0  0  0
   -0.1224    0.7943   -2.3300 H   0  0  0  0  0  0
    1.0204    1.6381   -1.3744 H   0  0  0  0  0  0
    0.4418   -1.3511    1.2011 H   0  0  0  0  0  0
    1.6278   -0.4597    2.1232 H   0  0  0  0  0  0
    4.0470   -1.3014   -1.7210 H   0  0  0  0  0  0
    0.7176   -1.4018   -1.3874 H   0  0  0  0  0  0
    2.0024   -0.4501   -2.0819 H   0  0  0  0  0  0
    2.4581   -2.5922   -0.1624 H   0  0  0  0  0  0
    3.2319   -1.8094    1.1965 H   0  0  0  0  0  0
   -2.2615    2.1992    0.4292 H   0  0  0  0  0  0
   -1.9001    2.2970   -1.2767 H   0  0  0  0  0  0
    1.8614    2.1526    0.6684 H   0  0  0  0  0  0
    1.4981    2.0306    2.3592 H   0  0  0  0  0  0
    5.4266   -2.9195    0.5282 H   0  0  0  0  0  0
    6.0717   -2.5900   -1.1620 H   0  0  0  0  0  0
    5.9975   -0.1190   -0.7070 H   0  0  0  0  0  0
    5.3535   -0.4513    0.9831 H   0  0  0  0  0  0
    0.8684    4.2574    1.3527 H   0  0  0  0  0  0
   -0.4753    3.4471    2.1389 H   0  0  0  0  0  0
   -2.4559    0.1004    1.7838 H   0  0  0  0  0  0
   -1.3906   -0.9109   -2.3013 H   0  0  0  0  0  0
   -3.0905   -2.6524   -2.2952 H   0  0  0  0  0  0
   -4.4805   -3.0657   -0.2821 H   0  0  0  0  0  0
   -4.9444   -2.3976    1.8771 H   0  0  0  0  0  0
    2.0040   -0.5262    0.0390 N   0  3  2  0  0  0
    2.5684    0.3099    0.0918 H   0  0  0  0  0  0
  1 16  2  0  0  0
  2 19  1  0  0  0
  2 46  1  0  0  0
  3  4  1  0  0  0
  3  5  1  0  0  0
  3 10  1  0  0  0
  3 14  1  0  0  0
  4  6  1  0  0  0
  4 11  1  0  0  0
  4 22  1  0  0  0
  5  8  1  0  0  0
  5 23  1  0  0  0
  5 24  1  0  0  0
  6 25  1  0  0  0
  6 26  1  0  0  0
  6 47  1  0  0  0
  7  9  1  0  0  0
  7 12  1  0  0  0
  7 13  1  0  0  0
  7 27  1  0  0  0
  8 28  1  0  0  0
  8 29  1  0  0  0
  8 47  1  0  0  0
  9 30  1  0  0  0
  9 31  1  0  0  0
  9 47  1  0  0  0
 10 16  1  0  0  0
 10 32  1  0  0  0
 10 33  1  0  0  0
 11 15  1  0  0  0
 11 34  1  0  0  0
 11 35  1  0  0  0
 12 13  1  0  0  0
 12 36  1  0  0  0
 12 37  1  0  0  0
 13 38  1  0  0  0
 13 39  1  0  0  0
 14 17  2  0  0  0
 14 18  1  0  0  0
 15 16  1  0  0  0
 15 40  1  0  0  0
 15 41  1  0  0  0
 17 19  1  0  0  0
 17 42  1  0  0  0
 18 20  2  0  0  0
 18 43  1  0  0  0
 19 21  2  0  0  0
 20 21  1  0  0  0
 20 44  1  0  0  0
 21 45  1  0  0  0
 47 48  1  0  0  0
M  CHG  1  47   1
M  END
> <LID>
L009518

> <PC_CID>
21219410

> <Names>


> <CAS_Numbers>


$$$$
14987133
                    3D
 Structure written by MMmdl.
 57 58  0  0  1  0            999 V2000
   -1.8958    2.6341    0.2810 O   0  0  0  0  0  0
   -1.0507    1.7026    2.1788 O   0  0  0  0  0  0
   -4.4347   -0.5767   -1.3332 O   0  0  0  0  0  0
    6.0805   -1.0776   -0.0672 O   0  0  0  0  0  0
    6.3081    0.8575   -1.3172 O   0  0  0  0  0  0
   -2.5174   -0.2529   -0.1538 N   0  0  0  0  0  0
   -1.1533    0.3271    0.1633 C   0  0  0  0  0  0
   -0.3321   -0.7257    0.9969 C   0  0  0  0  0  0
   -0.2594    0.6041   -1.0917 C   0  0  0  0  0  0
    1.1457   -0.3762    1.2552 C   0  0  0  0  0  0
    1.2155    0.9328   -0.7870 C   0  0  0  0  0  0
   -1.3521    1.6305    0.9861 C   0  0  0  0  0  0
    3.3205    0.0670    0.1937 C   0  0  0  0  0  0
   -3.0771   -1.1293    0.8347 C   0  0  0  0  0  0
   -3.3463   -0.0030   -1.2229 C   0  0  0  0  0  0
    4.1347   -0.1435   -1.0959 C   0  0  0  0  0  0
   -2.9929    0.9842   -2.3522 C   0  0  0  0  0  0
   -3.0572   -2.5291    0.6337 C   0  0  0  0  0  0
   -3.6559   -0.6039    2.0124 C   0  0  0  0  0  0
    5.6375   -0.0596   -0.8413 C   0  0  0  0  0  0
   -4.1611    1.2849   -3.3083 C   0  0  0  0  0  0
   -2.1562    3.8764    0.9110 C   0  0  0  0  0  0
   -3.6005   -3.3922    1.6047 C   0  0  0  0  0  0
   -4.1982   -1.4697    2.9816 C   0  0  0  0  0  0
   -4.1694   -2.8628    2.7789 C   0  0  0  0  0  0
    7.4117   -1.1561    0.2522 C   0  0  0  0  0  0
    7.8681   -2.0599    1.1307 C   0  0  0  0  0  0
   -0.7877   -0.9068    1.9716 H   0  0  0  0  0  0
   -0.3546   -1.6854    0.4781 H   0  0  0  0  0  0
   -0.2958   -0.2556   -1.7625 H   0  0  0  0  0  0
   -0.6068    1.4617   -1.6597 H   0  0  0  0  0  0
    1.2405    0.5021    1.8947 H   0  0  0  0  0  0
    1.6111   -1.2019    1.7950 H   0  0  0  0  0  0
    1.7373    1.0840   -1.7315 H   0  0  0  0  0  0
    1.2918    1.8730   -0.2381 H   0  0  0  0  0  0
    3.4912    1.0650    0.6013 H   0  0  0  0  0  0
    3.6737   -0.6386    0.9479 H   0  0  0  0  0  0
    3.9158   -1.1225   -1.5229 H   0  0  0  0  0  0
    3.8711    0.5988   -1.8489 H   0  0  0  0  0  0
   -2.6777    1.9362   -1.9356 H   0  0  0  0  0  0
   -2.1789    0.5723   -2.9470 H   0  0  0  0  0  0
   -2.6233   -2.9419   -0.2653 H   0  0  0  0  0  0
   -3.6912    0.4629    2.1764 H   0  0  0  0  0  0
   -5.0160    1.7025   -2.7748 H   0  0  0  0  0  0
   -4.4933    0.3872   -3.8311 H   0  0  0  0  0  0
   -3.8612    2.0103   -4.0647 H   0  0  0  0  0  0
   -2.8562    3.7534    1.7384 H   0  0  0  0  0  0
   -1.2359    4.3195    1.2935 H   0  0  0  0  0  0
   -2.5956    4.5698    0.1940 H   0  0  0  0  0  0
   -3.5821   -4.4606    1.4481 H   0  0  0  0  0  0
   -4.6390   -1.0642    3.8804 H   0  0  0  0  0  0
   -4.5869   -3.5254    3.5228 H   0  0  0  0  0  0
    8.0530   -0.4473   -0.2544 H   0  0  0  0  0  0
    8.9186   -2.1164    1.3750 H   0  0  0  0  0  0
    7.1983   -2.7543    1.6165 H   0  0  0  0  0  0
    1.8666   -0.1500   -0.0154 N   0  3  0  0  0  0
    1.7740   -1.0004   -0.5529 H   0  0  0  0  0  0
  1 12  1  0  0  0
  1 22  1  0  0  0
  2 12  2  0  0  0
  3 15  2  0  0  0
  4 20  1  0  0  0
  4 26  1  0  0  0
  5 20  2  0  0  0
  6  7  1  0  0  0
  6 14  1  0  0  0
  6 15  1  0  0  0
  7  8  1  0  0  0
  7  9  1  0  0  0
  7 12  1  0  0  0
  8 10  1  0  0  0
  8 28  1  0  0  0
  8 29  1  0  0  0
  9 11  1  0  0  0
  9 30  1  0  0  0
  9 31  1  0  0  0
 10 32  1  0  0  0
 10 33  1  0  0  0
 10 56  1  0  0  0
 11 34  1  0  0  0
 11 35  1  0  0  0
 11 56  1  0  0  0
 13 16  1  0  0  0
 13 36  1  0  0  0
 13 37  1  0  0  0
 13 56  1  0  0  0
 14 18  2  0  0  0
 14 19  1  0  0  0
 15 17  1  0  0  0
 16 20  1  0  0  0
 16 38  1  0  0  0
 16 39  1  0  0  0
 17 21  1  0  0  0
 17 40  1  0  0  0
 17 41  1  0  0  0
 18 23  1  0  0  0
 18 42  1  0  0  0
 19 24  2  0  0  0
 19 43  1  0  0  0
 21 44  1  0  0  0
 21 45  1  0  0  0
 21 46  1  0  0  0
 22 47  1  0  0  0
 22 48  1  0  0  0
 22 49  1  0  0  0
 23 25  2  0  0  0
 23 50  1  0  0  0
 24 25  1  0  0  0
 24 51  1  0  0  0
 25 52  1  0  0  0
 26 27  2  0  0  0
 26 53  1  0  0  0
 27 54  1  0  0  0
 27 55  1  0  0  0
 56 57  1  0  0  0
M  CHG  1  56   1
M  END
> <LID>
L004292

> <PC_CID>
14987133

> <Names>


> <CAS_Numbers>


$$$$
9904608
                    3D
 Structure written by MMmdl.
 45 47  0  0  1  0            999 V2000
    1.0823    1.0515    2.2588 S   0  0  0  0  0  0
   -4.9610    0.4447   -1.1972 O   0  0  0  0  0  0
    4.6093   -1.0987   -1.0443 N   0  0  0  0  0  0
    3.1539   -2.6736   -0.1924 N   0  3  0  0  0  0
   -0.0140    0.2530   -0.8533 C   0  0  2  0  0  0
    1.0510   -0.6030   -0.0941 C   0  0  2  0  0  0
    0.9359   -0.5814    1.4433 C   0  0  2  0  0  0
    0.1351    1.8070   -0.7447 C   0  0  0  0  0  0
   -1.4108   -0.0879   -0.2845 C   0  0  0  0  0  0
   -0.4055   -1.2217    1.8196 C   0  0  0  0  0  0
   -1.5807   -0.7583    0.9638 C   0  0  0  0  0  0
    0.0576   -0.1505   -2.3508 C   0  0  0  0  0  0
    1.5340    2.4516   -0.8679 C   0  0  0  0  0  0
    2.1549    2.9265    0.4655 C   0  0  0  0  0  0
    2.5308    1.8591    1.5135 C   0  0  0  0  0  0
   -2.5704    0.3185   -0.9912 C   0  0  0  0  0  0
   -2.8780   -1.0281    1.4486 C   0  0  0  0  0  0
   -3.8598    0.0470   -0.4967 C   0  0  0  0  0  0
   -4.0141   -0.6314    0.7232 C   0  0  0  0  0  0
    3.3882   -1.4182   -0.6003 C   0  0  0  0  0  0
    0.8081   -1.6296   -0.3718 H   0  0  0  0  0  0
    1.7386   -1.1829    1.8713 H   0  0  0  0  0  0
   -0.3227    2.1628    0.1781 H   0  0  0  0  0  0
   -0.4962    2.2547   -1.5135 H   0  0  0  0  0  0
   -0.6246   -1.0503    2.8746 H   0  0  0  0  0  0
   -0.3315   -2.3033    1.7008 H   0  0  0  0  0  0
   -0.1533   -1.2117   -2.4881 H   0  0  0  0  0  0
   -0.6458    0.4000   -2.9738 H   0  0  0  0  0  0
    1.0433    0.0422   -2.7740 H   0  0  0  0  0  0
    1.4082    3.3521   -1.4704 H   0  0  0  0  0  0
    2.2252    1.8535   -1.4558 H   0  0  0  0  0  0
    3.0584    3.4890    0.2274 H   0  0  0  0  0  0
    1.4831    3.6499    0.9295 H   0  0  0  0  0  0
    3.2599    1.1400    1.1492 H   0  0  0  0  0  0
    3.0355    2.3728    2.3321 H   0  0  0  0  0  0
   -2.4834    0.8577   -1.9217 H   0  0  0  0  0  0
   -3.0069   -1.5434    2.3893 H   0  0  0  0  0  0
   -5.0015   -0.8424    1.1072 H   0  0  0  0  0  0
   -4.7506    0.8947   -2.0008 H   0  0  0  0  0  0
    5.3415   -1.7935   -1.0720 H   0  0  0  0  0  0
    4.8082   -0.1612   -1.3625 H   0  0  0  0  0  0
    3.8866   -3.3678   -0.2197 H   0  0  0  0  0  0
    2.2358   -2.9367    0.1346 H   0  0  0  0  0  0
    2.4371   -0.4676   -0.5756 N   0  0  0  0  0  0
    2.7090    0.4711   -0.8285 H   0  0  0  0  0  0
  1  7  1  0  0  0
  1 15  1  0  0  0
  2 18  1  0  0  0
  2 39  1  0  0  0
  3 20  1  0  0  0
  3 40  1  0  0  0
  3 41  1  0  0  0
  4 20  2  0  0  0
  4 42  1  0  0  0
  4 43  1  0  0  0
  5  6  1  0  0  0
  5  8  1  0  0  0
  5  9  1  0  0  0
  5 12  1  0  0  0
  6  7  1  0  0  0
  6 21  1  0  0  0
  6 44  1  0  0  0
  7 10  1  0  0  0
  7 22  1  0  0  0
  8 13  1  0  0  0
  8 23  1  0  0  0
  8 24  1  0  0  0
  9 11  2  0  0  0
  9 16  1  0  0  0
 10 11  1  0  0  0
 10 25  1  0  0  0
 10 26  1  0  0  0
 11 17  1  0  0  0
 12 27  1  0  0  0
 12 28  1  0  0  0
 12 29  1  0  0  0
 13 14  1  0  0  0
 13 30  1  0  0  0
 13 31  1  0  0  0
 14 15  1  0  0  0
 14 32  1  0  0  0
 14 33  1  0  0  0
 15 34  1  0  0  0
 15 35  1  0  0  0
 16 18  2  0  0  0
 16 36  1  0  0  0
 17 19  2  0  0  0
 17 37  1  0  0  0
 18 19  1  0  0  0
 19 38  1  0  0  0
 20 44  1  0  0  0
 44 45  1  0  0  0
M  CHG  1   4   1
M  END
> <LID>
L016172

> <PC_CID>
9904608

> <Names>


> <CAS_Numbers>


$$$$
44212036
                    3D
 Structure written by MMmdl.
 55 57  0  0  1  0            999 V2000
   -0.5088    2.9577    0.2469 S   0  0  0  0  0  0
   -0.5667   -4.1697    0.1676 O   0  0  0  0  0  0
    0.0618    2.8649    1.5997 O   0  0  0  0  0  0
   -0.5628    4.2627   -0.4288 O   0  0  0  0  0  0
   -4.0356    0.4979   -1.5769 O   0  5  0  0  0  0
   -2.5106   -0.9818   -2.0103 O   0  0  0  0  0  0
    0.3836    1.8815   -0.7863 N   0  0  0  0  0  0
   -3.1153   -0.2402   -1.2435 N   0  3  0  0  0  0
    1.2846   -3.0459   -0.9032 C   0  0  0  0  0  0
    1.1960   -1.9440    1.2219 C   0  0  0  0  0  0
    0.8179   -0.6066   -0.8591 C   0  0  0  0  0  0
    0.8435   -4.0590    0.1635 C   0  0  1  0  0  0
    1.3172   -3.4431    1.4762 C   0  0  0  0  0  0
    1.1611    0.7584   -0.2109 C   0  0  1  0  0  0
    2.6577    1.0573   -0.2085 C   0  0  0  0  0  0
    0.1230    1.8924   -2.2343 C   0  0  0  0  0  0
   -2.2260    2.2588    0.2362 C   0  0  0  0  0  0
    3.4441    0.9045   -1.3734 C   0  0  0  0  0  0
    3.2710    1.5073    0.9813 C   0  0  0  0  0  0
   -2.3308    0.8825    0.8939 C   0  0  0  0  0  0
    4.8233    1.1879   -1.3434 C   0  0  0  0  0  0
    4.6499    1.7910    1.0109 C   0  0  0  0  0  0
    5.4272    1.6300   -0.1513 C   0  0  0  0  0  0
   -2.7394   -0.2789    0.1778 C   0  0  0  0  0  0
   -2.0466    0.7701    2.2736 C   0  0  0  0  0  0
   -2.7982   -1.5225    0.8445 C   0  0  0  0  0  0
   -2.1216   -0.4718    2.9300 C   0  0  0  0  0  0
   -2.4924   -1.6219    2.2133 C   0  0  0  0  0  0
    2.2354   -3.3531   -1.3398 H   0  0  0  0  0  0
    0.5658   -2.9748   -1.7219 H   0  0  0  0  0  0
    0.1733   -1.6275    1.4228 H   0  0  0  0  0  0
    1.8583   -1.3593    1.8610 H   0  0  0  0  0  0
    1.0791   -0.6118   -1.9173 H   0  0  0  0  0  0
   -0.2534   -0.7803   -0.8075 H   0  0  0  0  0  0
    1.2730   -5.0476   -0.0029 H   0  0  0  0  0  0
    2.3637   -3.7009    1.6450 H   0  0  0  0  0  0
    0.7481   -3.7774    2.3449 H   0  0  0  0  0  0
    0.8602    0.6730    0.8322 H   0  0  0  0  0  0
   -0.1555    2.8920   -2.5667 H   0  0  0  0  0  0
    1.0078    1.5970   -2.7959 H   0  0  0  0  0  0
   -0.6952    1.2148   -2.4782 H   0  0  0  0  0  0
   -0.8418   -4.6028   -0.6268 H   0  0  0  0  0  0
   -2.8628    2.9543    0.7831 H   0  0  0  0  0  0
   -2.5661    2.2774   -0.7957 H   0  0  0  0  0  0
    3.0026    0.5698   -2.2994 H   0  0  0  0  0  0
    2.6852    1.6406    1.8794 H   0  0  0  0  0  0
    5.4185    1.0683   -2.2368 H   0  0  0  0  0  0
    5.1109    2.1347    1.9252 H   0  0  0  0  0  0
    6.4847    1.8488   -0.1294 H   0  0  0  0  0  0
   -1.7694    1.6437    2.8447 H   0  0  0  0  0  0
   -3.0951   -2.4098    0.3043 H   0  0  0  0  0  0
   -1.8955   -0.5407    3.9839 H   0  0  0  0  0  0
   -2.5477   -2.5783    2.7124 H   0  0  0  0  0  0
    1.5076   -1.7512   -0.2128 N   0  3  2  0  0  0
    2.5000   -1.5695   -0.2696 H   0  0  0  0  0  0
  1  3  2  0  0  0
  1  4  2  0  0  0
  1  7  1  0  0  0
  1 17  1  0  0  0
  2 12  1  0  0  0
  2 42  1  0  0  0
  5  8  1  0  0  0
  6  8  2  0  0  0
  7 14  1  0  0  0
  7 16  1  0  0  0
  8 24  1  0  0  0
  9 12  1  0  0  0
  9 29  1  0  0  0
  9 30  1  0  0  0
  9 54  1  0  0  0
 10 13  1  0  0  0
 10 31  1  0  0  0
 10 32  1  0  0  0
 10 54  1  0  0  0
 11 14  1  0  0  0
 11 33  1  0  0  0
 11 34  1  0  0  0
 11 54  1  0  0  0
 12 13  1  0  0  0
 12 35  1  0  0  0
 13 36  1  0  0  0
 13 37  1  0  0  0
 14 15  1  0  0  0
 14 38  1  0  0  0
 15 18  2  0  0  0
 15 19  1  0  0  0
 16 39  1  0  0  0
 16 40  1  0  0  0
 16 41  1  0  0  0
 17 20  1  0  0  0
 17 43  1  0  0  0
 17 44  1  0  0  0
 18 21  1  0  0  0
 18 45  1  0  0  0
 19 22  2  0  0  0
 19 46  1  0  0  0
 20 24  1  0  0  0
 20 25  2  0  0  0
 21 23  2  0  0  0
 21 47  1  0  0  0
 22 23  1  0  0  0
 22 48  1  0  0  0
 23 49  1  0  0  0
 24 26  2  0  0  0
 25 27  1  0  0  0
 25 50  1  0  0  0
 26 28  1  0  0  0
 26 51  1  0  0  0
 27 28  2  0  0  0
 27 52  1  0  0  0
 28 53  1  0  0  0
 54 55  1  0  0  0
M  CHG  3   5  -1   8   1  54   1
M  END
> <LID>
L011381

> <PC_CID>
44212036

> <Names>


> <CAS_Numbers>


$$$$
18343449
                    3D
 Structure written by MMmdl.
 36 37  0  0  1  0            999 V2000
   -3.5967    1.3543   -0.2062 S   0  0  0  0  0  0
    4.4941   -0.3046    0.1065 O   0  0  0  0  0  0
   -0.3606   -1.3123    0.1588 C   0  0  0  0  0  0
   -1.6949   -0.6925   -0.3560 C   0  0  1  0  0  0
   -1.9761    0.6834    0.2809 C   0  0  1  0  0  0
    0.7950   -0.2993    0.0741 C   0  0  0  0  0  0
   -0.8545    1.6858   -0.0320 C   0  0  0  0  0  0
    0.5508    1.1007    0.0035 C   0  0  0  0  0  0
   -0.5156   -1.7419    1.6355 C   0  0  0  0  0  0
   -0.0612   -2.6024   -0.6499 C   0  0  0  0  0  0
    2.1371   -0.7503    0.1187 C   0  0  0  0  0  0
    1.6339    2.0032   -0.0506 C   0  0  0  0  0  0
    3.2110    0.1574    0.0667 C   0  0  0  0  0  0
    2.9597    1.5372   -0.0221 C   0  0  0  0  0  0
   -4.7004    0.3931    0.8651 C   0  0  0  0  0  0
   -2.5104   -1.3740   -0.1128 H   0  0  0  0  0  0
   -2.0142    0.5691    1.3632 H   0  0  0  0  0  0
   -0.9126    2.5265    0.6608 H   0  0  0  0  0  0
   -1.0010    2.1039   -1.0288 H   0  0  0  0  0  0
    0.3766   -2.2575    1.9930 H   0  0  0  0  0  0
   -0.6688   -0.8942    2.3024 H   0  0  0  0  0  0
   -1.3564   -2.4236    1.7684 H   0  0  0  0  0  0
    0.7480   -3.1887   -0.2149 H   0  0  0  0  0  0
   -0.9312   -3.2597   -0.6771 H   0  0  0  0  0  0
    0.2217   -2.3856   -1.6804 H   0  0  0  0  0  0
   -2.5820   -0.1564   -2.1229 H   0  0  0  0  0  0
   -0.9452    0.0513   -2.1106 H   0  0  0  0  0  0
    2.3653   -1.8013    0.2045 H   0  0  0  0  0  0
    1.4488    3.0659   -0.1128 H   0  0  0  0  0  0
    3.7779    2.2414   -0.0624 H   0  0  0  0  0  0
   -5.7333    0.7062    0.7124 H   0  0  0  0  0  0
   -4.6304   -0.6713    0.6434 H   0  0  0  0  0  0
   -4.4467    0.5490    1.9137 H   0  0  0  0  0  0
    5.1401    0.3841    0.0722 H   0  0  0  0  0  0
   -1.7017   -0.5561   -1.8293 N   0  3  0  0  0  0
   -1.5809   -1.4640   -2.2545 H   0  0  0  0  0  0
  1  5  1  0  0  0
  1 15  1  0  0  0
  2 13  1  0  0  0
  2 34  1  0  0  0
  3  4  1  0  0  0
  3  6  1  0  0  0
  3  9  1  0  0  0
  3 10  1  0  0  0
  4  5  1  0  0  0
  4 16  1  0  0  0
  4 35  1  0  0  0
  5  7  1  0  0  0
  5 17  1  0  0  0
  6  8  2  0  0  0
  6 11  1  0  0  0
  7  8  1  0  0  0
  7 18  1  0  0  0
  7 19  1  0  0  0
  8 12  1  0  0  0
  9 20  1  0  0  0
  9 21  1  0  0  0
  9 22  1  0  0  0
 10 23  1  0  0  0
 10 24  1  0  0  0
 10 25  1  0  0  0
 11 13  2  0  0  0
 11 28  1  0  0  0
 12 14  2  0  0  0
 12 29  1  0  0  0
 13 14  1  0  0  0
 14 30  1  0  0  0
 15 31  1  0  0  0
 15 32  1  0  0  0
 15 33  1  0  0  0
 26 35  1  0  0  0
 27 35  1  0  0  0
 35 36  1  0  0  0
M  CHG  1  35   1
M  END
> <LID>
L019835

> <PC_CID>
18343449

> <Names>


> <CAS_Numbers>


$$$$
15020438
                    3D
 Structure written by MMmdl.
 55 57  0  0  1  0            999 V2000
    7.0316   -1.4328   -0.4488 F   0  0  0  0  0  0
    6.6886    0.7007   -0.6164 F   0  0  0  0  0  0
    6.5884   -0.2574    1.3175 F   0  0  0  0  0  0
    0.2111    0.6082    0.1883 O   0  0  0  0  0  0
   -1.6546   -0.5851   -0.3030 N   0  0  0  0  0  0
   -3.5228   -0.2736    1.3330 C   0  0  0  0  0  0
   -2.5756    0.4190    0.2888 C   0  0  2  0  0  0
   -4.2332   -1.4909    0.6965 C   0  0  0  0  0  0
   -3.2528   -2.4601    0.0250 C   0  0  0  0  0  0
   -3.2569    1.2048   -0.8683 C   0  0  0  0  0  0
   -2.3246   -1.7300   -0.9531 C   0  0  0  0  0  0
   -4.5979    0.6833    1.8916 C   0  0  0  0  0  0
   -2.6832   -0.7377    2.5485 C   0  0  0  0  0  0
   -0.3061   -0.4108   -0.2746 C   0  0  0  0  0  0
   -2.9000    3.5349   -0.0107 C   0  0  0  0  0  0
   -4.8038    3.0756   -1.4457 C   0  0  0  0  0  0
    0.6100   -1.5218   -0.8260 C   0  0  0  0  0  0
   -3.4976    4.8019   -0.5533 C   0  0  0  0  0  0
   -4.5397    4.5508   -1.3378 C   0  0  0  0  0  0
    2.0882   -1.2322   -0.6063 C   0  0  0  0  0  0
    2.8357   -0.5609   -1.5964 C   0  0  0  0  0  0
    2.7216   -1.6394    0.5864 C   0  0  0  0  0  0
    4.2033   -0.2937   -1.3922 C   0  0  0  0  0  0
    4.0893   -1.3717    0.7896 C   0  0  0  0  0  0
    4.8380   -0.6920   -0.1956 C   0  0  0  0  0  0
    6.3177   -0.4105    0.0207 C   0  0  0  0  0  0
   -2.0055    1.1507    0.8615 H   0  0  0  0  0  0
   -4.9521   -1.1504   -0.0494 H   0  0  0  0  0  0
   -4.8175   -2.0256    1.4466 H   0  0  0  0  0  0
   -3.8072   -3.2371   -0.5021 H   0  0  0  0  0  0
   -2.6579   -2.9765    0.7785 H   0  0  0  0  0  0
   -2.5340    1.4198   -1.6575 H   0  0  0  0  0  0
   -4.0313    0.5899   -1.3269 H   0  0  0  0  0  0
   -2.9040   -1.3635   -1.8003 H   0  0  0  0  0  0
   -1.6444   -2.4615   -1.3842 H   0  0  0  0  0  0
   -5.3337    0.9599    1.1369 H   0  0  0  0  0  0
   -5.1552    0.2157    2.7043 H   0  0  0  0  0  0
   -4.1546    1.5967    2.2896 H   0  0  0  0  0  0
   -3.2977   -1.2629    3.2806 H   0  0  0  0  0  0
   -1.8725   -1.4103    2.2700 H   0  0  0  0  0  0
   -2.2270    0.1111    3.0593 H   0  0  0  0  0  0
   -2.8189    3.5654    1.0761 H   0  0  0  0  0  0
   -1.9077    3.3867   -0.4394 H   0  0  0  0  0  0
   -4.5864    2.7415   -2.4614 H   0  0  0  0  0  0
   -5.8386    2.8335   -1.2021 H   0  0  0  0  0  0
    0.3686   -2.4687   -0.3412 H   0  0  0  0  0  0
    0.4299   -1.6453   -1.8946 H   0  0  0  0  0  0
   -3.0949    5.7797   -0.3324 H   0  0  0  0  0  0
   -5.1271    5.2900   -1.8628 H   0  0  0  0  0  0
    2.3620   -0.2467   -2.5149 H   0  0  0  0  0  0
    2.1596   -2.1566    1.3503 H   0  0  0  0  0  0
    4.7641    0.2182   -2.1603 H   0  0  0  0  0  0
    4.5618   -1.6922    1.7064 H   0  0  0  0  0  0
   -3.8690    2.4875   -0.4454 N   0  3  0  0  0  0
   -4.4380    2.2865    0.3647 H   0  0  0  0  0  0
  1 26  1  0  0  0
  2 26  1  0  0  0
  3 26  1  0  0  0
  4 14  2  0  0  0
  5  7  1  0  0  0
  5 11  1  0  0  0
  5 14  1  0  0  0
  6  7  1  0  0  0
  6  8  1  0  0  0
  6 12  1  0  0  0
  6 13  1  0  0  0
  7 10  1  0  0  0
  7 27  1  0  0  0
  8  9  1  0  0  0
  8 28  1  0  0  0
  8 29  1  0  0  0
  9 11  1  0  0  0
  9 30  1  0  0  0
  9 31  1  0  0  0
 10 32  1  0  0  0
 10 33  1  0  0  0
 10 54  1  0  0  0
 11 34  1  0  0  0
 11 35  1  0  0  0
 12 36  1  0  0  0
 12 37  1  0  0  0
 12 38  1  0  0  0
 13 39  1  0  0  0
 13 40  1  0  0  0
 13 41  1  0  0  0
 14 17  1  0  0  0
 15 18  1  0  0  0
 15 42  1  0  0  0
 15 43  1  0  0  0
 15 54  1  0  0  0
 16 19  1  0  0  0
 16 44  1  0  0  0
 16 45  1  0  0  0
 16 54  1  0  0  0
 17 20  1  0  0  0
 17 46  1  0  0  0
 17 47  1  0  0  0
 18 19  2  0  0  0
 18 48  1  0  0  0
 19 49  1  0  0  0
 20 21  2  0  0  0
 20 22  1  0  0  0
 21 23  1  0  0  0
 21 50  1  0  0  0
 22 24  2  0  0  0
 22 51  1  0  0  0
 23 25  2  0  0  0
 23 52  1  0  0  0
 24 25  1  0  0  0
 24 53  1  0  0  0
 25 26  1  0  0  0
 54 55  1  0  0  0
M  CHG  1  54   1
M  END
> <LID>
L005478

> <PC_CID>
15020438

> <Names>


> <CAS_Numbers>


$$$$
5284603
                    3D
 Structure written by MMmdl.
 45 49  0  0  1  0            999 V2000
   -1.5888    0.9940   -1.1432 O   0  0  0  0  0  0
    2.8457    1.5143   -0.3424 O   0  0  0  0  0  0
   -1.5137    3.2781    0.3609 O   0  0  0  0  0  0
   -3.9887   -0.7879   -0.2782 O   0  0  0  0  0  0
    0.6447    0.4460   -0.6022 C   0  0  1  0  0  0
    1.8463    0.7530    0.3241 C   0  0  1  0  0  0
    2.4737   -0.6194    0.6908 C   0  0  1  0  0  0
   -0.3115    1.6283   -0.9414 C   0  0  2  0  0  0
    1.1734   -0.2242   -1.8995 C   0  0  0  0  0  0
   -0.3224   -0.4934    0.0596 C   0  0  0  0  0  0
    1.4241    1.6074    1.5396 C   0  0  0  0  0  0
    1.4640   -1.5476    1.4327 C   0  0  0  0  0  0
    2.0024   -1.4921   -1.6090 C   0  0  0  0  0  0
    0.0097   -1.5185    0.9575 C   0  0  0  0  0  0
    0.7380    2.9172    1.1088 C   0  0  0  0  0  0
   -0.4646    2.6573    0.1997 C   0  0  0  0  0  0
   -1.5896   -0.1438   -0.3776 C   0  0  0  0  0  0
    3.9167   -2.3986   -0.3278 C   0  0  0  0  0  0
   -1.0654   -2.3177    1.3916 C   0  0  0  0  0  0
   -2.6636   -0.9671    0.0594 C   0  0  0  0  0  0
   -2.3776   -2.0526    0.9280 C   0  0  0  0  0  0
   -4.3406    0.3067   -1.1096 C   0  0  0  0  0  0
    3.3249   -0.4489    1.3521 H   0  0  0  0  0  0
    0.0093    2.1553   -1.8402 H   0  0  0  0  0  0
    1.7842    0.4832   -2.4616 H   0  0  0  0  0  0
    0.3462   -0.4812   -2.5627 H   0  0  0  0  0  0
    2.2931    1.8371    2.1576 H   0  0  0  0  0  0
    0.7422    1.0526    2.1847 H   0  0  0  0  0  0
    1.4380   -1.2464    2.4803 H   0  0  0  0  0  0
    1.8061   -2.5812    1.4495 H   0  0  0  0  0  0
    1.3543   -2.3166   -1.3104 H   0  0  0  0  0  0
    2.4997   -1.8148   -2.5244 H   0  0  0  0  0  0
    1.4390    3.5651    0.5828 H   0  0  0  0  0  0
    0.4050    3.4669    1.9896 H   0  0  0  0  0  0
    2.4968    2.3701   -0.5424 H   0  0  0  0  0  0
    4.4407   -2.6553   -1.2490 H   0  0  0  0  0  0
    4.6705   -2.1656    0.4248 H   0  0  0  0  0  0
    3.3661   -3.2815   -0.0035 H   0  0  0  0  0  0
   -0.8939   -3.1216    2.0924 H   0  0  0  0  0  0
   -3.1893   -2.6763    1.2728 H   0  0  0  0  0  0
   -5.4178    0.2990   -1.2746 H   0  0  0  0  0  0
   -4.0880    1.2596   -0.6426 H   0  0  0  0  0  0
   -3.8594    0.2378   -2.0860 H   0  0  0  0  0  0
    3.0201   -1.2423   -0.5562 N   0  3  2  0  0  0
    3.6151   -0.5187   -0.9372 H   0  0  0  0  0  0
  1  8  1  0  0  0
  1 17  1  0  0  0
  2  6  1  0  0  0
  2 35  1  0  0  0
  3 16  2  0  0  0
  4 20  1  0  0  0
  4 22  1  0  0  0
  5  6  1  0  0  0
  5  8  1  0  0  0
  5  9  1  0  0  0
  5 10  1  0  0  0
  6  7  1  0  0  0
  6 11  1  0  0  0
  7 12  1  0  0  0
  7 23  1  0  0  0
  7 44  1  0  0  0
  8 16  1  0  0  0
  8 24  1  0  0  0
  9 13  1  0  0  0
  9 25  1  0  0  0
  9 26  1  0  0  0
 10 14  2  0  0  0
 10 17  1  0  0  0
 11 15  1  0  0  0
 11 27  1  0  0  0
 11 28  1  0  0  0
 12 14  1  0  0  0
 12 29  1  0  0  0
 12 30  1  0  0  0
 13 31  1  0  0  0
 13 32  1  0  0  0
 13 44  1  0  0  0
 14 19  1  0  0  0
 15 16  1  0  0  0
 15 33  1  0  0  0
 15 34  1  0  0  0
 17 20  2  0  0  0
 18 36  1  0  0  0
 18 37  1  0  0  0
 18 38  1  0  0  0
 18 44  1  0  0  0
 19 21  2  0  0  0
 19 39  1  0  0  0
 20 21  1  0  0  0
 21 40  1  0  0  0
 22 41  1  0  0  0
 22 42  1  0  0  0
 22 43  1  0  0  0
 44 45  1  0  0  0
M  CHG  1  44   1
M  END
> <LID>
L001019

> <PC_CID>
5284603

> <Names>
Aspirin-oxycodone hydrochloride-oxycodone terephthalate combination;Oxycodone;oxycodone terephthalate

> <CAS_Numbers>
124-90-3;25333-72-6;76-42-6

$$$$
44215406
                    3D
 Structure written by MMmdl.
 47 50  0  0  1  0            999 V2000
   -6.4583   -1.3798    1.7704 I   0  0  0  0  0  0
    4.5622   -1.9522    1.4963 O   0  0  0  0  0  0
    0.8379    1.1340    0.3477 C   0  0  2  0  0  0
    0.1231    1.5675   -0.9632 C   0  0  1  0  0  0
   -0.7785    0.4208   -1.4535 C   0  0  1  0  0  0
   -0.2402    0.7883    1.4059 C   0  0  0  0  0  0
    1.7377    2.3092    0.8337 C   0  0  0  0  0  0
   -0.6138    2.9210   -0.8648 C   0  0  0  0  0  0
    1.6648   -0.1414    0.0806 C   0  0  0  0  0  0
    0.1121   -0.7695   -1.8777 C   0  0  0  0  0  0
   -1.2254   -0.2860    0.9087 C   0  0  0  0  0  0
    1.0205    3.6713    0.9062 C   0  0  0  0  0  0
    0.3438    4.0321   -0.4208 C   0  0  0  0  0  0
    1.3001   -1.0395   -0.9613 C   0  0  0  0  0  0
   -2.8408   -0.8693   -0.8888 C   0  0  0  0  0  0
    2.7649   -0.4768    0.9075 C   0  0  0  0  0  0
    2.0469   -2.2166   -1.1753 C   0  0  0  0  0  0
    3.5037   -1.6546    0.6886 C   0  0  0  0  0  0
    3.1476   -2.5241   -0.3569 C   0  0  0  0  0  0
   -4.1100   -0.7410   -0.0703 C   0  0  0  0  0  0
   -4.6470   -1.7326    0.6561 C   0  0  0  0  0  0
    0.8949    1.7161   -1.7217 H   0  0  0  0  0  0
   -1.3232    0.7584   -2.3366 H   0  0  0  0  0  0
   -0.8097    1.6737    1.6847 H   0  0  0  0  0  0
    0.2346    0.4457    2.3262 H   0  0  0  0  0  0
    2.5873    2.4094    0.1564 H   0  0  0  0  0  0
    2.1547    2.1001    1.8183 H   0  0  0  0  0  0
   -1.4538    2.8625   -0.1728 H   0  0  0  0  0  0
   -1.0399    3.1815   -1.8344 H   0  0  0  0  0  0
    0.5297   -0.5512   -2.8614 H   0  0  0  0  0  0
   -0.4706   -1.6815   -2.0042 H   0  0  0  0  0  0
   -0.7418   -1.2614    0.8498 H   0  0  0  0  0  0
   -2.0238   -0.3928    1.6433 H   0  0  0  0  0  0
    1.7391    4.4473    1.1715 H   0  0  0  0  0  0
    0.2807    3.6656    1.7065 H   0  0  0  0  0  0
   -0.1963    4.9741   -0.3208 H   0  0  0  0  0  0
    1.1034    4.1909   -1.1875 H   0  0  0  0  0  0
   -3.1010   -0.6565   -1.9263 H   0  0  0  0  0  0
   -2.4698   -1.8947   -0.8538 H   0  0  0  0  0  0
    3.0566    0.1564    1.7303 H   0  0  0  0  0  0
    1.7740   -2.8930   -1.9723 H   0  0  0  0  0  0
    3.7099   -3.4299   -0.5310 H   0  0  0  0  0  0
   -4.5977    0.2231   -0.0872 H   0  0  0  0  0  0
    4.9925   -2.7610    1.2648 H   0  0  0  0  0  0
   -4.2301   -2.7265    0.7311 H   0  0  0  0  0  0
   -1.8007    0.0788   -0.4146 N   0  3  2  0  0  0
   -2.2924    0.9472   -0.2589 H   0  0  0  0  0  0
  1 21  1  0  0  0
  2 18  1  0  0  0
  2 44  1  0  0  0
  3  4  1  0  0  0
  3  6  1  0  0  0
  3  7  1  0  0  0
  3  9  1  0  0  0
  4  5  1  0  0  0
  4  8  1  0  0  0
  4 22  1  0  0  0
  5 10  1  0  0  0
  5 23  1  0  0  0
  5 46  1  0  0  0
  6 11  1  0  0  0
  6 24  1  0  0  0
  6 25  1  0  0  0
  7 12  1  0  0  0
  7 26  1  0  0  0
  7 27  1  0  0  0
  8 13  1  0  0  0
  8 28  1  0  0  0
  8 29  1  0  0  0
  9 14  2  0  0  0
  9 16  1  0  0  0
 10 14  1  0  0  0
 10 30  1  0  0  0
 10 31  1  0  0  0
 11 32  1  0  0  0
 11 33  1  0  0  0
 11 46  1  0  0  0
 12 13  1  0  0  0
 12 34  1  0  0  0
 12 35  1  0  0  0
 13 36  1  0  0  0
 13 37  1  0  0  0
 14 17  1  0  0  0
 15 20  1  0  0  0
 15 38  1  0  0  0
 15 39  1  0  0  0
 15 46  1  0  0  0
 16 18  2  0  0  0
 16 40  1  0  0  0
 17 19  2  0  0  0
 17 41  1  0  0  0
 18 19  1  0  0  0
 19 42  1  0  0  0
 20 21  2  0  0  0
 20 43  1  0  0  0
 21 45  1  0  0  0
 46 47  1  0  0  0
M  CHG  1  46   1
M  END
> <LID>
L020840

> <PC_CID>
44215406

> <Names>


> <CAS_Numbers>


$$$$
44210519
                    3D
 Structure written by MMmdl.
 52 55  0  0  1  0            999 V2000
   -4.5866   -0.4489    1.6850 S   0  0  0  0  0  0
    7.2046   -0.9311    1.2569 F   0  0  0  0  0  0
    7.3925    0.4027   -0.4324 F   0  0  0  0  0  0
    6.5641    1.1320    1.4330 F   0  0  0  0  0  0
    0.4597    0.5307    0.2334 O   0  0  0  0  0  0
   -1.2031   -0.7342   -0.6413 N   0  0  0  0  0  0
   -2.2706    0.0220    0.0578 C   0  0  1  0  0  0
   -2.7646    1.1676   -0.8601 C   0  0  0  0  0  0
   -4.4647    2.9709   -1.1317 C   0  0  0  0  0  0
   -3.1746    2.9159    0.8774 C   0  0  0  0  0  0
   -4.4998    4.3595   -0.4794 C   0  0  0  0  0  0
   -4.1173    4.1102    0.9754 C   0  0  0  0  0  0
   -3.3613   -0.9046    0.5254 C   0  0  0  0  0  0
   -1.6859   -1.8008   -1.5469 C   0  0  0  0  0  0
   -2.5276   -2.8531   -0.7985 C   0  0  0  0  0  0
   -3.4966   -2.2149    0.1473 C   0  0  0  0  0  0
    0.1076   -0.4321   -0.4518 C   0  0  0  0  0  0
   -4.6134   -2.8582    0.7588 C   0  0  0  0  0  0
    1.1861   -1.3198   -1.1039 C   0  0  0  0  0  0
   -5.3033   -2.0342    1.6079 C   0  0  0  0  0  0
    2.5961   -0.9566   -0.6600 C   0  0  0  0  0  0
    3.1498   -1.5446    0.4964 C   0  0  0  0  0  0
    3.3589   -0.0313   -1.4028 C   0  0  0  0  0  0
    4.4544   -1.2087    0.9070 C   0  0  0  0  0  0
    4.6634    0.3039   -0.9913 C   0  0  0  0  0  0
    5.2220   -0.2863    0.1633 C   0  0  0  0  0  0
    6.6278    0.0840    0.6127 C   0  0  0  0  0  0
   -1.8566    0.4691    0.9625 H   0  0  0  0  0  0
   -1.9214    1.7561   -1.2258 H   0  0  0  0  0  0
   -3.2442    0.7368   -1.7400 H   0  0  0  0  0  0
   -5.4721    2.5789   -1.2751 H   0  0  0  0  0  0
   -3.9886    3.0237   -2.1122 H   0  0  0  0  0  0
   -2.1759    3.2596    0.6024 H   0  0  0  0  0  0
   -3.0965    2.3717    1.8189 H   0  0  0  0  0  0
   -5.4690    4.8488   -0.5810 H   0  0  0  0  0  0
   -3.7532    5.0028   -0.9473 H   0  0  0  0  0  0
   -3.6566    4.9776    1.4492 H   0  0  0  0  0  0
   -5.0026    3.8396    1.5527 H   0  0  0  0  0  0
   -0.9068   -2.3032   -2.1172 H   0  0  0  0  0  0
   -2.3144   -1.3258   -2.3006 H   0  0  0  0  0  0
   -1.8609   -3.5118   -0.2409 H   0  0  0  0  0  0
   -3.0508   -3.4854   -1.5164 H   0  0  0  0  0  0
   -4.8637   -3.8908    0.5638 H   0  0  0  0  0  0
    1.0029   -2.3650   -0.8512 H   0  0  0  0  0  0
    1.1227   -1.2300   -2.1890 H   0  0  0  0  0  0
   -6.1775   -2.2647    2.1991 H   0  0  0  0  0  0
    2.5734   -2.2516    1.0752 H   0  0  0  0  0  0
    2.9439    0.4284   -2.2878 H   0  0  0  0  0  0
    4.8627   -1.6615    1.7985 H   0  0  0  0  0  0
    5.2333    1.0193   -1.5657 H   0  0  0  0  0  0
   -3.7350    2.0752   -0.2026 N   0  3  0  0  0  0
   -4.4404    1.4922    0.2261 H   0  0  0  0  0  0
  1 13  1  0  0  0
  1 20  1  0  0  0
  2 27  1  0  0  0
  3 27  1  0  0  0
  4 27  1  0  0  0
  5 17  2  0  0  0
  6  7  1  0  0  0
  6 14  1  0  0  0
  6 17  1  0  0  0
  7  8  1  0  0  0
  7 13  1  0  0  0
  7 28  1  0  0  0
  8 29  1  0  0  0
  8 30  1  0  0  0
  8 51  1  0  0  0
  9 11  1  0  0  0
  9 31  1  0  0  0
  9 32  1  0  0  0
  9 51  1  0  0  0
 10 12  1  0  0  0
 10 33  1  0  0  0
 10 34  1  0  0  0
 10 51  1  0  0  0
 11 12  1  0  0  0
 11 35  1  0  0  0
 11 36  1  0  0  0
 12 37  1  0  0  0
 12 38  1  0  0  0
 13 16  2  0  0  0
 14 15  1  0  0  0
 14 39  1  0  0  0
 14 40  1  0  0  0
 15 16  1  0  0  0
 15 41  1  0  0  0
 15 42  1  0  0  0
 16 18  1  0  0  0
 17 19  1  0  0  0
 18 20  2  0  0  0
 18 43  1  0  0  0
 19 21  1  0  0  0
 19 44  1  0  0  0
 19 45  1  0  0  0
 20 46  1  0  0  0
 21 22  2  0  0  0
 21 23  1  0  0  0
 22 24  1  0  0  0
 22 47  1  0  0  0
 23 25  2  0  0  0
 23 48  1  0  0  0
 24 26  2  0  0  0
 24 49  1  0  0  0
 25 26  1  0  0  0
 25 50  1  0  0  0
 26 27  1  0  0  0
 51 52  1  0  0  0
M  CHG  1  51   1
M  END
> <LID>
L007445

> <PC_CID>
44210519

> <Names>


> <CAS_Numbers>


$$$$
9847319
                    3D
 Structure written by MMmdl.
 64 66  0  0  1  0            999 V2000
   -7.8523    2.1969   -0.9109 Cl  0  0  0  0  0  0
    0.2533   -3.9091    1.7747 O   0  0  0  0  0  0
   -2.5207    2.8918   -1.7060 O   0  0  0  0  0  0
   -1.6140    1.2701   -0.4113 N   0  0  0  0  0  0
    0.7323    0.8530    0.4174 C   0  0  1  0  0  0
    2.1789    1.2529   -0.0002 C   0  0  0  0  0  0
    3.3204    0.3750    0.5660 C   0  0  0  0  0  0
    0.5633    1.1832    1.9393 C   0  0  0  0  0  0
   -0.2414    1.7662   -0.3935 C   0  0  0  0  0  0
    5.7331    0.4406    1.0819 C   0  0  0  0  0  0
    4.9967    0.4497   -1.2641 C   0  0  0  0  0  0
    0.5127   -0.6402    0.0727 C   0  0  0  0  0  0
    7.0889    1.0503    0.6866 C   0  0  0  0  0  0
    6.3360    1.0612   -1.7093 C   0  0  0  0  0  0
    7.4664    0.6680   -0.7500 C   0  0  0  0  0  0
   -0.8374    1.0062    2.5574 C   0  0  0  0  0  0
    0.4702   -1.6527    1.0637 C   0  0  0  0  0  0
    0.3998   -1.0337   -1.2820 C   0  0  0  0  0  0
    0.2876   -3.0103    0.7303 C   0  0  0  0  0  0
    0.2159   -2.3831   -1.6309 C   0  0  0  0  0  0
   -2.6300    1.8428   -1.0713 C   0  0  0  0  0  0
    0.1552   -3.3702   -0.6321 C   0  0  0  0  0  0
   -3.9558    1.1498   -0.9382 C   0  0  0  0  0  0
   -5.1507    1.9031   -0.9766 C   0  0  0  0  0  0
   -4.0330   -0.2581   -0.8134 C   0  0  0  0  0  0
    0.0608   -5.2828    1.4697 C   0  0  0  0  0  0
   -6.4015    1.2640   -0.8711 C   0  0  0  0  0  0
   -5.2843   -0.8959   -0.7079 C   0  0  0  0  0  0
   -6.4685   -0.1356   -0.7344 C   0  0  0  0  0  0
    2.3608    2.2940    0.2707 H   0  0  0  0  0  0
    2.2385    1.2254   -1.0876 H   0  0  0  0  0  0
    3.1995   -0.6725    0.2871 H   0  0  0  0  0  0
    3.2779    0.4074    1.6539 H   0  0  0  0  0  0
    1.2658    0.6026    2.5347 H   0  0  0  0  0  0
    0.8561    2.2200    2.1103 H   0  0  0  0  0  0
   -0.2235    2.7864   -0.0064 H   0  0  0  0  0  0
    0.0805    1.8417   -1.4332 H   0  0  0  0  0  0
    5.8038   -0.6481    1.1124 H   0  0  0  0  0  0
    5.4783    0.7700    2.0900 H   0  0  0  0  0  0
    5.0415   -0.6384   -1.3356 H   0  0  0  0  0  0
    4.2179    0.7760   -1.9520 H   0  0  0  0  0  0
    7.0438    2.1365    0.7776 H   0  0  0  0  0  0
    7.8639    0.7148    1.3765 H   0  0  0  0  0  0
    6.5770    0.7339   -2.7212 H   0  0  0  0  0  0
    6.2488    2.1479   -1.7490 H   0  0  0  0  0  0
    7.6467   -0.4061   -0.8115 H   0  0  0  0  0  0
    8.3963    1.1584   -1.0399 H   0  0  0  0  0  0
   -0.7890    1.1131    3.6412 H   0  0  0  0  0  0
   -1.5326    1.7650    2.1992 H   0  0  0  0  0  0
   -1.2696    0.0292    2.3457 H   0  0  0  0  0  0
   -1.8002    0.4235    0.1064 H   0  0  0  0  0  0
    0.5795   -1.4156    2.1097 H   0  0  0  0  0  0
    0.4518   -0.3010   -2.0732 H   0  0  0  0  0  0
    0.1237   -2.6627   -2.6701 H   0  0  0  0  0  0
    0.0138   -4.3958   -0.9372 H   0  0  0  0  0  0
   -5.1139    2.9779   -1.0832 H   0  0  0  0  0  0
   -3.1377   -0.8634   -0.8023 H   0  0  0  0  0  0
    0.0521   -5.8588    2.3949 H   0  0  0  0  0  0
   -0.8934   -5.4503    0.9684 H   0  0  0  0  0  0
    0.8691   -5.6704    0.8481 H   0  0  0  0  0  0
   -5.3355   -1.9704   -0.6102 H   0  0  0  0  0  0
   -7.4271   -0.6270   -0.6542 H   0  0  0  0  0  0
    4.6619    0.8434    0.1320 N   0  3  0  0  0  0
    4.6348    1.8528    0.1561 H   0  0  0  0  0  0
  1 27  1  0  0  0
  2 19  1  0  0  0
  2 26  1  0  0  0
  3 21  2  0  0  0
  4  9  1  0  0  0
  4 21  1  0  0  0
  4 51  1  0  0  0
  5  6  1  0  0  0
  5  8  1  0  0  0
  5  9  1  0  0  0
  5 12  1  0  0  0
  6  7  1  0  0  0
  6 30  1  0  0  0
  6 31  1  0  0  0
  7 32  1  0  0  0
  7 33  1  0  0  0
  7 63  1  0  0  0
  8 16  1  0  0  0
  8 34  1  0  0  0
  8 35  1  0  0  0
  9 36  1  0  0  0
  9 37  1  0  0  0
 10 13  1  0  0  0
 10 38  1  0  0  0
 10 39  1  0  0  0
 10 63  1  0  0  0
 11 14  1  0  0  0
 11 40  1  0  0  0
 11 41  1  0  0  0
 11 63  1  0  0  0
 12 17  2  0  0  0
 12 18  1  0  0  0
 13 15  1  0  0  0
 13 42  1  0  0  0
 13 43  1  0  0  0
 14 15  1  0  0  0
 14 44  1  0  0  0
 14 45  1  0  0  0
 15 46  1  0  0  0
 15 47  1  0  0  0
 16 48  1  0  0  0
 16 49  1  0  0  0
 16 50  1  0  0  0
 17 19  1  0  0  0
 17 52  1  0  0  0
 18 20  2  0  0  0
 18 53  1  0  0  0
 19 22  2  0  0  0
 20 22  1  0  0  0
 20 54  1  0  0  0
 21 23  1  0  0  0
 22 55  1  0  0  0
 23 24  2  0  0  0
 23 25  1  0  0  0
 24 27  1  0  0  0
 24 56  1  0  0  0
 25 28  2  0  0  0
 25 57  1  0  0  0
 26 58  1  0  0  0
 26 59  1  0  0  0
 26 60  1  0  0  0
 27 29  2  0  0  0
 28 29  1  0  0  0
 28 61  1  0  0  0
 29 62  1  0  0  0
 63 64  1  0  0  0
M  CHG  1  63   1
M  END
> <LID>
L015768

> <PC_CID>
9847319

> <Names>


> <CAS_Numbers>


$$$$
3082720
                    3D
 Structure written by MMmdl.
 59 61  0  0  1  0            999 V2000
   -7.4967    0.7056    0.5438 Cl  0  0  0  0  0  0
   -7.8961   -2.2573   -0.5662 Cl  0  0  0  0  0  0
   -1.9153   -0.0269   -0.3125 O   0  0  0  0  0  0
    4.0993   -1.6805    0.7522 O   0  0  0  0  0  0
    4.1509   -2.0634   -2.0562 O   0  0  0  0  0  0
   -0.5540    0.7269    1.3413 N   0  0  0  0  0  0
    0.9806    4.1465   -1.1572 C   0  0  0  0  0  0
    3.0692    3.3535   -0.2519 C   0  0  0  0  0  0
    2.0223    4.0646   -2.2785 C   0  0  0  0  0  0
    3.3610    4.1058   -1.5480 C   0  0  0  0  0  0
    0.9358    2.7682    1.0004 C   0  0  0  0  0  0
    0.3218    1.4644    0.3934 C   0  0  1  0  0  0
    1.3430    0.5350   -0.2582 C   0  0  0  0  0  0
   -1.6497    0.0597    0.8887 C   0  0  0  0  0  0
   -0.2013    0.7301    2.7705 C   0  0  0  0  0  0
    2.2740   -0.1874    0.5161 C   0  0  0  0  0  0
    1.3639    0.3899   -1.6592 C   0  0  0  0  0  0
   -2.6008   -0.5998    1.9094 C   0  0  0  0  0  0
    3.2298   -1.0267   -0.0899 C   0  0  0  0  0  0
    2.2986   -0.4621   -2.2741 C   0  0  0  0  0  0
    3.2402   -1.1878   -1.5010 C   0  0  0  0  0  0
   -3.9297   -1.0099    1.2909 C   0  0  0  0  0  0
   -4.9894   -0.0821    1.2072 C   0  0  0  0  0  0
   -4.1112   -2.3200    0.8004 C   0  0  0  0  0  0
    5.4795   -1.6066    0.4221 C   0  0  0  0  0  0
   -6.2210   -0.4563    0.6340 C   0  0  0  0  0  0
   -5.3412   -2.6965    0.2277 C   0  0  0  0  0  0
    4.1724   -2.2204   -3.4676 C   0  0  0  0  0  0
   -6.3978   -1.7685    0.1423 C   0  0  0  0  0  0
    0.6802    5.1831   -1.0013 H   0  0  0  0  0  0
    0.0794    3.5970   -1.4186 H   0  0  0  0  0  0
    3.2039    2.2894   -0.4240 H   0  0  0  0  0  0
    3.7442    3.6416    0.5545 H   0  0  0  0  0  0
    1.6312    2.5410    1.8072 H   0  0  0  0  0  0
    0.1304    3.3508    1.4494 H   0  0  0  0  0  0
    1.9158    4.8633   -3.0132 H   0  0  0  0  0  0
    1.9238    3.1143   -2.8047 H   0  0  0  0  0  0
    3.6318    5.1394   -1.3273 H   0  0  0  0  0  0
    4.1729    3.6596   -2.1232 H   0  0  0  0  0  0
   -0.3325    1.8087   -0.4045 H   0  0  0  0  0  0
   -0.3893   -0.2334    3.2446 H   0  0  0  0  0  0
    0.8519    0.9261    2.9541 H   0  0  0  0  0  0
   -0.7790    1.4886    3.2999 H   0  0  0  0  0  0
    2.2801   -0.0907    1.5903 H   0  0  0  0  0  0
    0.6561    0.9267   -2.2738 H   0  0  0  0  0  0
   -2.1186   -1.4807    2.3347 H   0  0  0  0  0  0
   -2.8047    0.0864    2.7324 H   0  0  0  0  0  0
    2.2638   -0.5473   -3.3493 H   0  0  0  0  0  0
   -4.8576    0.9231    1.5803 H   0  0  0  0  0  0
   -3.3066   -3.0386    0.8579 H   0  0  0  0  0  0
   -5.4732   -3.7006   -0.1479 H   0  0  0  0  0  0
    6.0691   -1.6414    1.3380 H   0  0  0  0  0  0
    5.7809   -2.4557   -0.1912 H   0  0  0  0  0  0
    5.7340   -0.6823   -0.0996 H   0  0  0  0  0  0
    4.9529   -2.9318   -3.7370 H   0  0  0  0  0  0
    3.2259   -2.6144   -3.8399 H   0  0  0  0  0  0
    4.3975   -1.2792   -3.9709 H   0  0  0  0  0  0
    1.6646    3.6874    0.0773 N   0  3  0  0  0  0
    1.7590    4.5372    0.6153 H   0  0  0  0  0  0
  1 26  1  0  0  0
  2 29  1  0  0  0
  3 14  2  0  0  0
  4 19  1  0  0  0
  4 25  1  0  0  0
  5 21  1  0  0  0
  5 28  1  0  0  0
  6 12  1  0  0  0
  6 14  1  0  0  0
  6 15  1  0  0  0
  7  9  1  0  0  0
  7 30  1  0  0  0
  7 31  1  0  0  0
  7 58  1  0  0  0
  8 10  1  0  0  0
  8 32  1  0  0  0
  8 33  1  0  0  0
  8 58  1  0  0  0
  9 10  1  0  0  0
  9 36  1  0  0  0
  9 37  1  0  0  0
 10 38  1  0  0  0
 10 39  1  0  0  0
 11 12  1  0  0  0
 11 34  1  0  0  0
 11 35  1  0  0  0
 11 58  1  0  0  0
 12 13  1  0  0  0
 12 40  1  0  0  0
 13 16  2  0  0  0
 13 17  1  0  0  0
 14 18  1  0  0  0
 15 41  1  0  0  0
 15 42  1  0  0  0
 15 43  1  0  0  0
 16 19  1  0  0  0
 16 44  1  0  0  0
 17 20  2  0  0  0
 17 45  1  0  0  0
 18 22  1  0  0  0
 18 46  1  0  0  0
 18 47  1  0  0  0
 19 21  2  0  0  0
 20 21  1  0  0  0
 20 48  1  0  0  0
 22 23  2  0  0  0
 22 24  1  0  0  0
 23 26  1  0  0  0
 23 49  1  0  0  0
 24 27  2  0  0  0
 24 50  1  0  0  0
 25 52  1  0  0  0
 25 53  1  0  0  0
 25 54  1  0  0  0
 26 29  2  0  0  0
 27 29  1  0  0  0
 27 51  1  0  0  0
 28 55  1  0  0  0
 28 56  1  0  0  0
 28 57  1  0  0  0
 58 59  1  0  0  0
M  CHG  1  58   1
M  END
> <LID>
L005620

> <PC_CID>
3082720

> <Names>
ICI 204879

> <CAS_Numbers>
115200-30-1;136329-00-5

$$$$
44214506
                    3D
 Structure written by MMmdl.
 68 74  0  0  1  0            999 V2000
    5.9888    0.7086   -0.2086 O   0  0  0  0  0  0
   10.0194   -1.2597    0.6514 O   0  0  0  0  0  0
   12.0977    1.2201   -1.0100 O   0  5  0  0  0  0
    4.5426    3.3538   -0.2123 O   0  0  0  0  0  0
    5.4926   -1.9944   -1.4489 O   0  0  0  0  0  0
   -0.7177   -3.4824   -0.4674 O   0  0  0  0  0  0
   11.0249    1.8883   -0.4729 N   0  3  2  0  0  0
    5.6972   -2.2357    0.7982 N   0  0  0  0  0  0
    8.3180    0.5626    0.1815 C   0  0  2  0  0  0
    9.5145    0.0623    1.0488 C   0  0  2  0  0  0
   10.6278    1.2684    0.9751 C   0  0  1  0  0  0
    6.9539   -0.0891    0.5003 C   0  0  2  0  0  0
    8.8207    0.6335   -1.2954 C   0  0  0  0  0  0
    7.8072    1.9292    0.4906 C   0  0  0  0  0  0
    8.9177   -0.4741    2.3889 C   0  0  0  0  0  0
    9.8307    1.8256   -1.5028 C   0  0  0  0  0  0
    7.0354   -1.5887    0.8025 C   0  0  1  0  0  0
    9.8457    2.4320    1.7115 C   0  0  0  0  0  0
    7.8675   -1.6495    2.1606 C   0  0  0  0  0  0
   11.4895    3.3585   -0.3847 C   0  0  0  0  0  0
    8.5293    2.9314    1.1212 C   0  0  0  0  0  0
   12.0426    3.8857   -1.7073 C   0  0  0  0  0  0
    6.4831    1.9667    0.0721 C   0  0  0  0  0  0
   11.1953    4.7238   -2.6409 C   0  0  0  0  0  0
   12.3097    5.3668   -1.8575 C   0  0  0  0  0  0
    7.8740    4.1770    1.2279 C   0  0  0  0  0  0
    5.8439    3.2192    0.1721 C   0  0  0  0  0  0
    6.5519    4.3230    0.7228 C   0  0  0  0  0  0
    5.2754   -2.9517    2.0163 C   0  0  0  0  0  0
    4.9802   -2.2672   -0.3607 C   0  0  0  0  0  0
    3.5553   -2.5451   -0.2064 C   0  0  0  0  0  0
    2.8068   -2.9109   -1.2651 C   0  0  0  0  0  0
    1.3687   -3.1975   -1.2104 C   0  0  0  0  0  0
    0.5650   -3.5813   -2.3173 C   0  0  0  0  0  0
    0.5552   -3.1496   -0.1134 C   0  0  0  0  0  0
   -0.6941   -3.7413   -1.8079 C   0  0  0  0  0  0
   10.6278    0.5783    0.2020 H   0  0  0  0  0  0
    6.6181    0.1976    1.5084 H   0  0  0  0  0  0
    9.2773   -0.3076   -1.6018 H   0  0  0  0  0  0
    7.9812    0.7746   -1.9768 H   0  0  0  0  0  0
    8.4099    0.3279    2.9234 H   0  0  0  0  0  0
    9.7080   -0.8064    3.0645 H   0  0  0  0  0  0
    9.3025    2.7773   -1.4558 H   0  0  0  0  0  0
   10.2751    1.7829   -2.4980 H   0  0  0  0  0  0
    7.6190   -2.0682    0.0148 H   0  0  0  0  0  0
   10.4922    3.2816    1.9238 H   0  0  0  0  0  0
    9.6166    2.1058    2.7238 H   0  0  0  0  0  0
    8.3662   -2.6174    2.2282 H   0  0  0  0  0  0
    7.2062   -1.6049    3.0256 H   0  0  0  0  0  0
   12.2673    3.4007    0.3790 H   0  0  0  0  0  0
   10.6558    3.9958   -0.0968 H   0  0  0  0  0  0
   12.7984    3.2554   -2.1715 H   0  0  0  0  0  0
    9.3161   -1.8858    0.7279 H   0  0  0  0  0  0
   13.2024    5.6634   -2.4045 H   0  0  0  0  0  0
   10.1753    4.9535   -2.3391 H   0  0  0  0  0  0
   11.3440    4.5854   -3.7098 H   0  0  0  0  0  0
   12.0301    6.0199   -1.0330 H   0  0  0  0  0  0
    8.3639    5.0087    1.7124 H   0  0  0  0  0  0
    6.0560    5.2784    0.8133 H   0  0  0  0  0  0
    4.5244   -3.7215    1.8373 H   0  0  0  0  0  0
    6.1032   -3.4949    2.4704 H   0  0  0  0  0  0
    4.8747   -2.2508    2.7491 H   0  0  0  0  0  0
    4.1803    2.5464   -0.5448 H   0  0  0  0  0  0
    3.0792   -2.4409    0.7572 H   0  0  0  0  0  0
    3.2645   -3.0116   -2.2396 H   0  0  0  0  0  0
    0.8637   -3.7219   -3.3457 H   0  0  0  0  0  0
    0.7014   -2.9138    0.9304 H   0  0  0  0  0  0
   -1.6445   -4.0222   -2.2374 H   0  0  0  0  0  0
  1 12  1  0  0  0
  1 23  1  0  0  0
  2 10  1  0  0  0
  2 53  1  0  0  0
  3  7  1  0  0  0
  4 27  1  0  0  0
  4 63  1  0  0  0
  5 30  2  0  0  0
  6 35  1  0  0  0
  6 36  1  0  0  0
  7 11  1  0  0  0
  7 16  1  0  0  0
  7 20  1  0  0  0
  8 17  1  0  0  0
  8 29  1  0  0  0
  8 30  1  0  0  0
  9 10  1  0  0  0
  9 12  1  0  0  0
  9 13  1  0  0  0
  9 14  1  0  0  0
 10 11  1  0  0  0
 10 15  1  0  0  0
 11 18  1  0  0  0
 11 37  1  0  0  0
 12 17  1  0  0  0
 12 38  1  0  0  0
 13 16  1  0  0  0
 13 39  1  0  0  0
 13 40  1  0  0  0
 14 21  2  0  0  0
 14 23  1  0  0  0
 15 19  1  0  0  0
 15 41  1  0  0  0
 15 42  1  0  0  0
 16 43  1  0  0  0
 16 44  1  0  0  0
 17 19  1  0  0  0
 17 45  1  0  0  0
 18 21  1  0  0  0
 18 46  1  0  0  0
 18 47  1  0  0  0
 19 48  1  0  0  0
 19 49  1  0  0  0
 20 22  1  0  0  0
 20 50  1  0  0  0
 20 51  1  0  0  0
 21 26  1  0  0  0
 22 24  1  0  0  0
 22 25  1  0  0  0
 22 52  1  0  0  0
 23 27  2  0  0  0
 24 25  1  0  0  0
 24 55  1  0  0  0
 24 56  1  0  0  0
 25 54  1  0  0  0
 25 57  1  0  0  0
 26 28  2  0  0  0
 26 58  1  0  0  0
 27 28  1  0  0  0
 28 59  1  0  0  0
 29 60  1  0  0  0
 29 61  1  0  0  0
 29 62  1  0  0  0
 30 31  1  0  0  0
 31 32  2  0  0  0
 31 64  1  0  0  0
 32 33  1  0  0  0
 32 65  1  0  0  0
 33 34  1  0  0  0
 33 35  2  0  0  0
 34 36  2  0  0  0
 34 66  1  0  0  0
 35 67  1  0  0  0
 36 68  1  0  0  0
M  CHG  2   3  -1   7   1
M  END
> <LID>
L017893

> <PC_CID>
44214506

> <Names>


> <CAS_Numbers>


$$$$
441278
                    3D
 Structure written by MMmdl.
 49 51  0  0  1  0            999 V2000
   -4.4398   -2.3426   -0.8253 O   0  0  0  0  0  0
   -1.0555    1.2960   -0.8139 C   0  0  1  0  0  0
   -0.4158    2.2569    0.2287 C   0  0  2  0  0  0
    0.5286    1.4436    1.1377 C   0  0  1  0  0  0
    0.1102    0.7284   -1.6587 C   0  0  0  0  0  0
   -0.2664    0.3907    1.9476 C   0  0  0  0  0  0
   -1.7755    0.1227   -0.1204 C   0  0  0  0  0  0
    1.1675    0.0045   -0.8040 C   0  0  0  0  0  0
   -1.3781   -0.3082    1.1751 C   0  0  0  0  0  0
   -1.9922    2.0915   -1.7552 C   0  0  0  0  0  0
   -1.4326    3.0859    1.0449 C   0  0  0  0  0  0
    2.7250    0.2482    1.1160 C   0  0  0  0  0  0
   -2.8069   -0.5858   -0.7835 C   0  0  0  0  0  0
   -2.0245   -1.4027    1.7861 C   0  0  0  0  0  0
   -3.4461   -1.6783   -0.1677 C   0  0  0  0  0  0
   -3.0571   -2.0858    1.1203 C   0  0  0  0  0  0
    4.0325    0.2439    0.3408 C   0  0  0  0  0  0
    4.6760   -0.8188   -0.1848 C   0  0  0  0  0  0
    5.9955   -0.6529   -0.9133 C   0  0  0  0  0  0
    4.1845   -2.2554   -0.1148 C   0  0  0  0  0  0
    0.1925    2.9886   -0.3066 H   0  0  0  0  0  0
    1.0008    2.1277    1.8445 H   0  0  0  0  0  0
    0.5946    1.5377   -2.2073 H   0  0  0  0  0  0
   -0.2713    0.0417   -2.4158 H   0  0  0  0  0  0
   -0.7445    0.8906    2.7908 H   0  0  0  0  0  0
    0.3920   -0.3540    2.3934 H   0  0  0  0  0  0
    0.7757   -0.9355   -0.4144 H   0  0  0  0  0  0
    2.0094   -0.2637   -1.4425 H   0  0  0  0  0  0
   -1.4999    2.9874   -2.1349 H   0  0  0  0  0  0
   -2.2898    1.5116   -2.6285 H   0  0  0  0  0  0
   -2.9037    2.4076   -1.2472 H   0  0  0  0  0  0
   -0.9302    3.6679    1.8179 H   0  0  0  0  0  0
   -1.9666    3.7966    0.4145 H   0  0  0  0  0  0
   -2.1777    2.4598    1.5357 H   0  0  0  0  0  0
    2.8999    0.8354    2.0182 H   0  0  0  0  0  0
    2.4399   -0.7456    1.4552 H   0  0  0  0  0  0
   -3.1201   -0.3103   -1.7783 H   0  0  0  0  0  0
   -1.7275   -1.7236    2.7739 H   0  0  0  0  0  0
   -3.5431   -2.9231    1.5994 H   0  0  0  0  0  0
    4.4750    1.2214    0.2120 H   0  0  0  0  0  0
   -4.8051   -3.0567   -0.3260 H   0  0  0  0  0  0
    6.7737   -1.2382   -0.4228 H   0  0  0  0  0  0
    5.9054   -0.9984   -1.9435 H   0  0  0  0  0  0
    6.3187    0.3884   -0.9336 H   0  0  0  0  0  0
    4.8492   -2.8470    0.5151 H   0  0  0  0  0  0
    3.1733   -2.3545    0.2731 H   0  0  0  0  0  0
    4.1878   -2.6957   -1.1122 H   0  0  0  0  0  0
    1.6364    0.8643    0.3156 N   0  3  2  0  0  0
    2.0623    1.6664   -0.1264 H   0  0  0  0  0  0
  1 15  1  0  0  0
  1 41  1  0  0  0
  2  3  1  0  0  0
  2  5  1  0  0  0
  2  7  1  0  0  0
  2 10  1  0  0  0
  3  4  1  0  0  0
  3 11  1  0  0  0
  3 21  1  0  0  0
  4  6  1  0  0  0
  4 22  1  0  0  0
  4 48  1  0  0  0
  5  8  1  0  0  0
  5 23  1  0  0  0
  5 24  1  0  0  0
  6  9  1  0  0  0
  6 25  1  0  0  0
  6 26  1  0  0  0
  7  9  2  0  0  0
  7 13  1  0  0  0
  8 27  1  0  0  0
  8 28  1  0  0  0
  8 48  1  0  0  0
  9 14  1  0  0  0
 10 29  1  0  0  0
 10 30  1  0  0  0
 10 31  1  0  0  0
 11 32  1  0  0  0
 11 33  1  0  0  0
 11 34  1  0  0  0
 12 17  1  0  0  0
 12 35  1  0  0  0
 12 36  1  0  0  0
 12 48  1  0  0  0
 13 15  2  0  0  0
 13 37  1  0  0  0
 14 16  2  0  0  0
 14 38  1  0  0  0
 15 16  1  0  0  0
 16 39  1  0  0  0
 17 18  2  0  0  0
 17 40  1  0  0  0
 18 19  1  0  0  0
 18 20  1  0  0  0
 19 42  1  0  0  0
 19 43  1  0  0  0
 19 44  1  0  0  0
 20 45  1  0  0  0
 20 46  1  0  0  0
 20 47  1  0  0  0
 48 49  1  0  0  0
M  CHG  1  48   1
M  END
> <LID>
L013413

> <PC_CID>
441278

> <Names>
KF 1820;Pentazocine

> <CAS_Numbers>
359-83-1;64024-15-3

$$$$
105104
                    3D
 Structure written by MMmdl.
 59 62  0  0  1  0            999 V2000
   -4.5781   -1.5914    0.1173 O   0  0  0  0  0  0
    1.4786   -0.8811   -0.1239 O   0  0  0  0  0  0
    0.4456    0.3887   -1.6955 N   0  0  0  0  0  0
   -3.1558   -1.4681    0.0429 C   0  0  2  0  0  0
   -1.3268    0.3396    0.1462 C   0  0  1  0  0  0
   -2.8204   -0.0010    0.3988 C   0  0  0  0  0  0
   -0.9370    0.0032   -1.3208 C   0  0  2  0  0  0
   -2.7252   -1.7909   -1.4043 C   0  0  0  0  0  0
   -1.2413   -1.4730   -1.6515 C   0  0  0  0  0  0
   -2.6147   -2.4814    1.0746 C   0  0  0  0  0  0
   -3.8088   -2.7600    1.9604 C   0  0  0  0  0  0
   -0.8838    2.0180    1.9674 C   0  0  0  0  0  0
   -1.6736    2.8424   -0.1492 C   0  0  0  0  0  0
   -4.9461   -2.6769    0.9566 C   0  0  0  0  0  0
   -1.1486    3.5161    2.0975 C   0  0  0  0  0  0
   -2.1342    3.7849    0.9660 C   0  0  0  0  0  0
    0.5544    1.2972   -2.8461 C   0  0  0  0  0  0
    1.5494   -0.0710   -1.0489 C   0  0  0  0  0  0
    2.9355    0.4543   -1.4766 C   0  0  0  0  0  0
    4.0191    0.1393   -0.4556 C   0  0  0  0  0  0
    4.2495    1.0154    0.6269 C   0  0  0  0  0  0
    4.8021   -1.0277   -0.5871 C   0  0  0  0  0  0
    5.2525    0.7246    1.5720 C   0  0  0  0  0  0
    5.8049   -1.3176    0.3586 C   0  0  0  0  0  0
    6.0302   -0.4418    1.4382 C   0  0  0  0  0  0
   -0.7429   -0.2991    0.8066 H   0  0  0  0  0  0
   -3.4602    0.6442   -0.2020 H   0  0  0  0  0  0
   -3.0992    0.1877    1.4348 H   0  0  0  0  0  0
   -1.6221    0.5856   -1.9373 H   0  0  0  0  0  0
   -3.3315   -1.2064   -2.0977 H   0  0  0  0  0  0
   -2.9297   -2.8362   -1.6387 H   0  0  0  0  0  0
   -0.9964   -1.6784   -2.6943 H   0  0  0  0  0  0
   -0.6223   -2.1415   -1.0528 H   0  0  0  0  0  0
   -1.7555   -2.1254    1.6421 H   0  0  0  0  0  0
   -2.3146   -3.4076    0.5824 H   0  0  0  0  0  0
   -3.9128   -1.9794    2.7151 H   0  0  0  0  0  0
   -3.7537   -3.7246    2.4656 H   0  0  0  0  0  0
   -1.6562    1.4704    2.5063 H   0  0  0  0  0  0
    0.0796    1.7274    2.3875 H   0  0  0  0  0  0
   -2.5054    2.5243   -0.7758 H   0  0  0  0  0  0
   -0.9668    3.3561   -0.8017 H   0  0  0  0  0  0
   -5.9157   -2.5117    1.4265 H   0  0  0  0  0  0
   -5.0022   -3.5889    0.3605 H   0  0  0  0  0  0
   -1.5386    3.7946    3.0770 H   0  0  0  0  0  0
   -0.2270    4.0752    1.9289 H   0  0  0  0  0  0
   -2.1522    4.8304    0.6567 H   0  0  0  0  0  0
   -3.1414    3.5125    1.2852 H   0  0  0  0  0  0
    0.7962    2.3064   -2.5110 H   0  0  0  0  0  0
    1.3279    0.9725   -3.5431 H   0  0  0  0  0  0
   -0.3614    1.3596   -3.4340 H   0  0  0  0  0  0
    3.2063    0.0144   -2.4372 H   0  0  0  0  0  0
    2.9061    1.5355   -1.6148 H   0  0  0  0  0  0
    3.6564    1.9114    0.7367 H   0  0  0  0  0  0
    4.6334   -1.7055   -1.4111 H   0  0  0  0  0  0
    5.4256    1.3964    2.3998 H   0  0  0  0  0  0
    6.4010   -2.2124    0.2560 H   0  0  0  0  0  0
    6.7993   -0.6646    2.1631 H   0  0  0  0  0  0
   -0.9444    1.7329    0.5152 N   0  3  0  0  0  0
    0.0100    1.8325    0.2003 H   0  0  0  0  0  0
  1  4  1  0  0  0
  1 14  1  0  0  0
  2 18  2  0  0  0
  3  7  1  0  0  0
  3 17  1  0  0  0
  3 18  1  0  0  0
  4  6  1  0  0  0
  4  8  1  0  0  0
  4 10  1  0  0  0
  5  6  1  0  0  0
  5  7  1  0  0  0
  5 26  1  0  0  0
  5 58  1  0  0  0
  6 27  1  0  0  0
  6 28  1  0  0  0
  7  9  1  0  0  0
  7 29  1  0  0  0
  8  9  1  0  0  0
  8 30  1  0  0  0
  8 31  1  0  0  0
  9 32  1  0  0  0
  9 33  1  0  0  0
 10 11  1  0  0  0
 10 34  1  0  0  0
 10 35  1  0  0  0
 11 14  1  0  0  0
 11 36  1  0  0  0
 11 37  1  0  0  0
 12 15  1  0  0  0
 12 38  1  0  0  0
 12 39  1  0  0  0
 12 58  1  0  0  0
 13 16  1  0  0  0
 13 40  1  0  0  0
 13 41  1  0  0  0
 13 58  1  0  0  0
 14 42  1  0  0  0
 14 43  1  0  0  0
 15 16  1  0  0  0
 15 44  1  0  0  0
 15 45  1  0  0  0
 16 46  1  0  0  0
 16 47  1  0  0  0
 17 48  1  0  0  0
 17 49  1  0  0  0
 17 50  1  0  0  0
 18 19  1  0  0  0
 19 20  1  0  0  0
 19 51  1  0  0  0
 19 52  1  0  0  0
 20 21  2  0  0  0
 20 22  1  0  0  0
 21 23  1  0  0  0
 21 53  1  0  0  0
 22 24  2  0  0  0
 22 54  1  0  0  0
 23 25  2  0  0  0
 23 55  1  0  0  0
 24 25  1  0  0  0
 24 56  1  0  0  0
 25 57  1  0  0  0
 58 59  1  0  0  0
M  CHG  1  58   1
M  END
> <LID>
L000609

> <PC_CID>
105104

> <Names>
U 69593

> <CAS_Numbers>
96744-75-1

$$$$
44214497
                    3D
 Structure written by MMmdl.
 59 61  0  0  1  0            999 V2000
    3.9985   -4.0258   -1.4434 F   0  0  0  0  0  0
   -5.2064   -0.3248   -1.7301 O   0  0  0  0  0  0
   -6.5658   -2.5424    0.3762 O   0  0  0  0  0  0
    1.0448    1.0740   -1.7487 N   0  0  0  0  0  0
   -2.1362    0.3326   -0.0273 N   0  0  0  0  0  0
   -4.8139    0.0198    0.4760 N   0  0  0  0  0  0
    4.2635   -1.7541   -0.9526 C   0  0  0  0  0  0
    3.0904   -2.6055    0.9513 C   0  0  0  0  0  0
    4.7148   -3.1953   -0.6846 C   0  0  1  0  0  0
    4.3659   -3.4257    0.7812 C   0  0  0  0  0  0
    2.0150   -0.8106   -0.3875 C   0  0  0  0  0  0
    2.1717    0.6502   -0.8976 C   0  0  2  0  0  0
    2.5890    1.6503    0.1912 C   0  0  0  0  0  0
   -0.2781    0.8081   -1.5444 C   0  0  0  0  0  0
    1.4727    1.8421   -2.9169 C   0  0  0  0  0  0
    1.7008    2.6317    0.6941 C   0  0  0  0  0  0
    3.9146    1.6289    0.6840 C   0  0  0  0  0  0
   -1.1771    0.7281   -2.6353 C   0  0  0  0  0  0
   -0.8344    0.6000   -0.2585 C   0  0  0  0  0  0
    2.1163    3.5383    1.6884 C   0  0  0  0  0  0
    4.3320    2.5344    1.6781 C   0  0  0  0  0  0
    3.4307    3.4870    2.1861 C   0  0  0  0  0  0
   -2.5371    0.4494   -2.4056 C   0  0  0  0  0  0
   -2.9841    0.2578   -1.0804 C   0  0  0  0  0  0
   -4.4341   -0.0512   -0.8105 C   0  0  0  0  0  0
   -6.1567   -0.2462    0.9795 C   0  0  0  0  0  0
   -6.2981   -1.6979    1.4768 C   0  0  1  0  0  0
   -7.4672   -1.8553    2.4585 C   0  0  0  0  0  0
    5.1108   -1.0734   -0.8684 H   0  0  0  0  0  0
    3.8604   -1.6460   -1.9610 H   0  0  0  0  0  0
    2.2377   -3.1838    0.5902 H   0  0  0  0  0  0
    2.8986   -2.3374    1.9907 H   0  0  0  0  0  0
    5.7672   -3.3687   -0.9123 H   0  0  0  0  0  0
    5.1545   -3.0237    1.4189 H   0  0  0  0  0  0
    4.2338   -4.4790    1.0311 H   0  0  0  0  0  0
    1.6139   -1.4507   -1.1754 H   0  0  0  0  0  0
    1.3006   -0.8461    0.4328 H   0  0  0  0  0  0
    3.0295    0.6184   -1.5710 H   0  0  0  0  0  0
    0.7275    2.5897   -3.1916 H   0  0  0  0  0  0
    2.4029    2.3787   -2.7255 H   0  0  0  0  0  0
    1.6301    1.1812   -3.7698 H   0  0  0  0  0  0
    0.6932    2.7174    0.3207 H   0  0  0  0  0  0
    4.6329    0.9243    0.2955 H   0  0  0  0  0  0
   -0.8404    0.8636   -3.6524 H   0  0  0  0  0  0
   -0.2320    0.6630    0.6337 H   0  0  0  0  0  0
    1.4260    4.2790    2.0648 H   0  0  0  0  0  0
    5.3469    2.5029    2.0465 H   0  0  0  0  0  0
    3.7499    4.1843    2.9467 H   0  0  0  0  0  0
   -3.2201    0.3837   -3.2404 H   0  0  0  0  0  0
   -6.3066    0.4382    1.8150 H   0  0  0  0  0  0
   -6.9255    0.0025    0.2454 H   0  0  0  0  0  0
   -4.1017    0.2588    1.1513 H   0  0  0  0  0  0
   -5.3785   -2.0247    1.9644 H   0  0  0  0  0  0
   -7.5686   -2.8891    2.7906 H   0  0  0  0  0  0
   -7.3178   -1.2404    3.3465 H   0  0  0  0  0  0
   -8.4123   -1.5564    2.0033 H   0  0  0  0  0  0
   -6.6245   -3.4334    0.6855 H   0  0  0  0  0  0
    3.2799   -1.4068    0.1053 N   0  3  2  0  0  0
    3.7209   -0.7168    0.6970 H   0  0  0  0  0  0
  1  9  1  0  0  0
  2 25  2  0  0  0
  3 27  1  0  0  0
  3 57  1  0  0  0
  4 12  1  0  0  0
  4 14  1  0  0  0
  4 15  1  0  0  0
  5 19  1  0  0  0
  5 24  2  0  0  0
  6 25  1  0  0  0
  6 26  1  0  0  0
  6 52  1  0  0  0
  7  9  1  0  0  0
  7 29  1  0  0  0
  7 30  1  0  0  0
  7 58  1  0  0  0
  8 10  1  0  0  0
  8 31  1  0  0  0
  8 32  1  0  0  0
  8 58  1  0  0  0
  9 10  1  0  0  0
  9 33  1  0  0  0
 10 34  1  0  0  0
 10 35  1  0  0  0
 11 12  1  0  0  0
 11 36  1  0  0  0
 11 37  1  0  0  0
 11 58  1  0  0  0
 12 13  1  0  0  0
 12 38  1  0  0  0
 13 16  2  0  0  0
 13 17  1  0  0  0
 14 18  1  0  0  0
 14 19  2  0  0  0
 15 39  1  0  0  0
 15 40  1  0  0  0
 15 41  1  0  0  0
 16 20  1  0  0  0
 16 42  1  0  0  0
 17 21  2  0  0  0
 17 43  1  0  0  0
 18 23  2  0  0  0
 18 44  1  0  0  0
 19 45  1  0  0  0
 20 22  2  0  0  0
 20 46  1  0  0  0
 21 22  1  0  0  0
 21 47  1  0  0  0
 22 48  1  0  0  0
 23 24  1  0  0  0
 23 49  1  0  0  0
 24 25  1  0  0  0
 26 27  1  0  0  0
 26 50  1  0  0  0
 26 51  1  0  0  0
 27 28  1  0  0  0
 27 53  1  0  0  0
 28 54  1  0  0  0
 28 55  1  0  0  0
 28 56  1  0  0  0
 58 59  1  0  0  0
M  CHG  1  58   1
M  END
> <LID>
L017856

> <PC_CID>
44214497

> <Names>


> <CAS_Numbers>


$$$$
60815
                    3D
 Structure written by MMmdl.
 56 57  0  0  1  0            999 V2000
   -1.8375    2.0427    1.4367 O   0  0  0  0  0  0
   -0.5194    2.7832   -0.2742 O   0  0  0  0  0  0
   -4.2444   -0.5306   -1.2633 O   0  0  0  0  0  0
    6.3596   -1.0641    0.3524 O   0  0  0  0  0  0
    6.6067    0.3753   -1.4154 O   0  0  0  0  0  0
   -2.2337   -0.2548   -0.2376 N   0  0  0  0  0  0
   -0.8772    0.3777   -0.0341 C   0  0  0  0  0  0
   -0.0813   -0.3140    1.1276 C   0  0  0  0  0  0
    0.0144    0.1736   -1.3045 C   0  0  0  0  0  0
    1.3789    0.1508    1.2625 C   0  0  0  0  0  0
    1.5044    0.5508   -1.1414 C   0  0  0  0  0  0
   -1.0576    1.8709    0.3549 C   0  0  0  0  0  0
    3.5791    0.1591    0.1589 C   0  0  0  0  0  0
   -2.6348   -1.2764    0.6791 C   0  0  0  0  0  0
   -3.1542    0.0467   -1.2115 C   0  0  0  0  0  0
    4.4219   -0.5175   -0.9381 C   0  0  0  0  0  0
   -2.8916    1.0983   -2.3095 C   0  0  0  0  0  0
   -2.3979   -2.6343    0.3680 C   0  0  0  0  0  0
   -3.2807   -0.9373    1.8891 C   0  0  0  0  0  0
    5.9201   -0.3495   -0.6957 C   0  0  0  0  0  0
   -4.1791    1.7144   -2.8830 C   0  0  0  0  0  0
   -2.1017    3.3514    1.9106 C   0  0  0  0  0  0
   -2.7920   -3.6434    1.2675 C   0  0  0  0  0  0
   -3.6734   -1.9492    2.7862 C   0  0  0  0  0  0
   -3.4278   -3.3010    2.4767 C   0  0  0  0  0  0
    7.7315   -1.0137    0.7045 C   0  0  0  0  0  0
   -0.5767   -0.1668    2.0886 H   0  0  0  0  0  0
   -0.0473   -1.3928    0.9721 H   0  0  0  0  0  0
   -0.0437   -0.8729   -1.6079 H   0  0  0  0  0  0
   -0.3503    0.7435   -2.1538 H   0  0  0  0  0  0
    1.4377    1.2130    1.5051 H   0  0  0  0  0  0
    1.8404   -0.3839    2.0938 H   0  0  0  0  0  0
    2.0274    0.2781   -2.0576 H   0  0  0  0  0  0
    1.6247    1.6290   -1.0351 H   0  0  0  0  0  0
    3.7424    1.2383    0.1612 H   0  0  0  0  0  0
    3.9140   -0.2053    1.1316 H   0  0  0  0  0  0
    4.1994   -1.5841   -0.9786 H   0  0  0  0  0  0
    4.1850   -0.1061   -1.9191 H   0  0  0  0  0  0
   -2.2818    1.9214   -1.9556 H   0  0  0  0  0  0
   -2.3478    0.6167   -3.1220 H   0  0  0  0  0  0
   -1.9124   -2.9021   -0.5592 H   0  0  0  0  0  0
   -3.4790    0.0960    2.1314 H   0  0  0  0  0  0
   -4.7984    0.9659   -3.3789 H   0  0  0  0  0  0
   -4.7769    2.1842   -2.1010 H   0  0  0  0  0  0
   -3.9425    2.4809   -3.6211 H   0  0  0  0  0  0
   -2.7485    3.3043    2.7866 H   0  0  0  0  0  0
   -1.1778    3.8559    2.1958 H   0  0  0  0  0  0
   -2.6047    3.9468    1.1475 H   0  0  0  0  0  0
   -2.6084   -4.6808    1.0292 H   0  0  0  0  0  0
   -4.1659   -1.6883    3.7114 H   0  0  0  0  0  0
   -3.7310   -4.0760    3.1653 H   0  0  0  0  0  0
    7.9152   -1.6478    1.5719 H   0  0  0  0  0  0
    8.3571   -1.3689   -0.1154 H   0  0  0  0  0  0
    8.0312    0.0041    0.9574 H   0  0  0  0  0  0
    2.1296   -0.1310    0.0177 N   0  3  0  0  0  0
    2.0487   -1.1252   -0.1425 H   0  0  0  0  0  0
  1 12  1  0  0  0
  1 22  1  0  0  0
  2 12  2  0  0  0
  3 15  2  0  0  0
  4 20  1  0  0  0
  4 26  1  0  0  0
  5 20  2  0  0  0
  6  7  1  0  0  0
  6 14  1  0  0  0
  6 15  1  0  0  0
  7  8  1  0  0  0
  7  9  1  0  0  0
  7 12  1  0  0  0
  8 10  1  0  0  0
  8 27  1  0  0  0
  8 28  1  0  0  0
  9 11  1  0  0  0
  9 29  1  0  0  0
  9 30  1  0  0  0
 10 31  1  0  0  0
 10 32  1  0  0  0
 10 55  1  0  0  0
 11 33  1  0  0  0
 11 34  1  0  0  0
 11 55  1  0  0  0
 13 16  1  0  0  0
 13 35  1  0  0  0
 13 36  1  0  0  0
 13 55  1  0  0  0
 14 18  2  0  0  0
 14 19  1  0  0  0
 15 17  1  0  0  0
 16 20  1  0  0  0
 16 37  1  0  0  0
 16 38  1  0  0  0
 17 21  1  0  0  0
 17 39  1  0  0  0
 17 40  1  0  0  0
 18 23  1  0  0  0
 18 41  1  0  0  0
 19 24  2  0  0  0
 19 42  1  0  0  0
 21 43  1  0  0  0
 21 44  1  0  0  0
 21 45  1  0  0  0
 22 46  1  0  0  0
 22 47  1  0  0  0
 22 48  1  0  0  0
 23 25  2  0  0  0
 23 49  1  0  0  0
 24 25  1  0  0  0
 24 50  1  0  0  0
 25 51  1  0  0  0
 26 52  1  0  0  0
 26 53  1  0  0  0
 26 54  1  0  0  0
 55 56  1  0  0  0
M  CHG  1  55   1
M  END
> <LID>
L004288

> <PC_CID>
60815

> <Names>
remifentanil

> <CAS_Numbers>
132539-07-2;132875-61-7;132875-62-8

$$$$
44216077
                    3D
 Structure written by MMmdl.
 64 68  0  0  1  0            999 V2000
    3.0081    1.7999    2.6126 S   0  0  0  0  0  0
    5.0027   -5.4050   -1.5407 O   0  0  0  0  0  0
   -0.9720   -1.6258    0.0775 O   0  0  0  0  0  0
    0.2139    0.0010   -0.9437 N   0  0  0  0  0  0
    1.9413    1.8829    0.0507 N   0  0  0  0  0  0
    1.5401    3.6904    1.6055 N   0  0  0  0  0  0
    1.5104   -0.5176   -0.4576 C   0  0  1  0  0  0
    1.9977   -1.6936   -1.3327 C   0  0  0  0  0  0
    2.5584    0.6186   -0.3460 C   0  0  0  0  0  0
    3.9025   -3.2323   -1.7538 C   0  0  0  0  0  0
    3.0574   -3.0645    0.4755 C   0  0  0  0  0  0
    4.7052   -4.1932   -0.8799 C   0  0  1  0  0  0
    3.7775   -4.4090    0.3119 C   0  0  0  0  0  0
    0.3446    1.2050   -1.7824 C   0  0  0  0  0  0
    1.0460    2.3487   -1.0127 C   0  0  0  0  0  0
   -0.9565   -0.5550   -0.5342 C   0  0  0  0  0  0
   -2.2967    0.1835   -0.7875 C   0  0  0  0  0  0
    2.0877    2.5134    1.2879 C   0  0  0  0  0  0
   -3.5129   -0.6988   -0.4910 C   0  0  0  0  0  0
   -2.3627    1.5367   -0.0683 C   0  0  0  0  0  0
   -3.9511   -0.9274    0.8345 C   0  0  0  0  0  0
   -2.9521    2.6366   -0.7294 C   0  0  0  0  0  0
   -4.2175   -1.2990   -1.5587 C   0  0  0  0  0  0
   -1.8435    1.7198    1.2370 C   0  0  0  0  0  0
    2.6052    3.1798    3.5971 C   0  0  0  0  0  0
    1.8270    4.0805    2.9155 C   0  0  0  0  0  0
   -5.0735   -1.7401    1.0856 C   0  0  0  0  0  0
   -3.0104    3.8986   -0.1072 C   0  0  0  0  0  0
   -5.3401   -2.1115   -1.3074 C   0  0  0  0  0  0
   -1.9016    2.9816    1.8584 C   0  0  0  0  0  0
   -5.7691   -2.3321    0.0148 C   0  0  0  0  0  0
   -2.4826    4.0725    1.1858 C   0  0  0  0  0  0
    1.3597   -0.8720    0.5640 H   0  0  0  0  0  0
    1.2208   -2.4538   -1.4296 H   0  0  0  0  0  0
    2.1971   -1.3283   -2.3412 H   0  0  0  0  0  0
    3.3550    0.3336    0.3402 H   0  0  0  0  0  0
    3.0461    0.7740   -1.3098 H   0  0  0  0  0  0
    4.5249   -2.6852   -2.4627 H   0  0  0  0  0  0
    3.1508   -3.7854   -2.3208 H   0  0  0  0  0  0
    2.0075   -3.2227    0.7277 H   0  0  0  0  0  0
    3.5040   -2.4778    1.2790 H   0  0  0  0  0  0
    5.6297   -3.7168   -0.5496 H   0  0  0  0  0  0
    4.3099   -4.7182    1.2120 H   0  0  0  0  0  0
    3.0434   -5.1824    0.0792 H   0  0  0  0  0  0
   -0.5824    1.5664   -2.2214 H   0  0  0  0  0  0
    0.9610    0.9284   -2.6388 H   0  0  0  0  0  0
    1.5974    2.9891   -1.7017 H   0  0  0  0  0  0
    0.2758    2.9767   -0.5642 H   0  0  0  0  0  0
   -2.3397    0.3819   -1.8583 H   0  0  0  0  0  0
    5.5993   -5.2287   -2.2527 H   0  0  0  0  0  0
   -3.4264   -0.4874    1.6688 H   0  0  0  0  0  0
   -3.3590    2.5176   -1.7230 H   0  0  0  0  0  0
   -3.9006   -1.1405   -2.5791 H   0  0  0  0  0  0
   -1.3910    0.8974    1.7713 H   0  0  0  0  0  0
    2.9637    3.2439    4.6137 H   0  0  0  0  0  0
    1.4347    5.0177    3.2821 H   0  0  0  0  0  0
   -5.3999   -1.9102    2.1010 H   0  0  0  0  0  0
   -3.4594    4.7344   -0.6233 H   0  0  0  0  0  0
   -5.8724   -2.5660   -2.1300 H   0  0  0  0  0  0
   -1.4953    3.1133    2.8505 H   0  0  0  0  0  0
   -6.6298   -2.9555    0.2075 H   0  0  0  0  0  0
   -2.5246    5.0410    1.6620 H   0  0  0  0  0  0
    3.2288   -2.3254   -0.8008 N   0  3  2  0  0  0
    3.8894   -1.5850   -0.6118 H   0  0  0  0  0  0
  1 18  1  0  0  0
  1 25  1  0  0  0
  2 12  1  0  0  0
  2 50  1  0  0  0
  3 16  2  0  0  0
  4  7  1  0  0  0
  4 14  1  0  0  0
  4 16  1  0  0  0
  5  9  1  0  0  0
  5 15  1  0  0  0
  5 18  1  0  0  0
  6 18  2  0  0  0
  6 26  1  0  0  0
  7  8  1  0  0  0
  7  9  1  0  0  0
  7 33  1  0  0  0
  8 34  1  0  0  0
  8 35  1  0  0  0
  8 63  1  0  0  0
  9 36  1  0  0  0
  9 37  1  0  0  0
 10 12  1  0  0  0
 10 38  1  0  0  0
 10 39  1  0  0  0
 10 63  1  0  0  0
 11 13  1  0  0  0
 11 40  1  0  0  0
 11 41  1  0  0  0
 11 63  1  0  0  0
 12 13  1  0  0  0
 12 42  1  0  0  0
 13 43  1  0  0  0
 13 44  1  0  0  0
 14 15  1  0  0  0
 14 45  1  0  0  0
 14 46  1  0  0  0
 15 47  1  0  0  0
 15 48  1  0  0  0
 16 17  1  0  0  0
 17 19  1  0  0  0
 17 20  1  0  0  0
 17 49  1  0  0  0
 19 21  2  0  0  0
 19 23  1  0  0  0
 20 22  2  0  0  0
 20 24  1  0  0  0
 21 27  1  0  0  0
 21 51  1  0  0  0
 22 28  1  0  0  0
 22 52  1  0  0  0
 23 29  2  0  0  0
 23 53  1  0  0  0
 24 30  2  0  0  0
 24 54  1  0  0  0
 25 26  2  0  0  0
 25 55  1  0  0  0
 26 56  1  0  0  0
 27 31  2  0  0  0
 27 57  1  0  0  0
 28 32  2  0  0  0
 28 58  1  0  0  0
 29 31  1  0  0  0
 29 59  1  0  0  0
 30 32  1  0  0  0
 30 60  1  0  0  0
 31 61  1  0  0  0
 32 62  1  0  0  0
 63 64  1  0  0  0
M  CHG  1  63   1
M  END
> <LID>
L023221

> <PC_CID>
44216077

> <Names>


> <CAS_Numbers>


$$$$
11957712
                    3D
 Structure written by MMmdl.
 59 62  0  0  1  0            999 V2000
   -4.9434   -0.3914    1.3730 O   0  0  0  0  0  0
    1.5148    1.0883    1.1063 O   0  0  0  0  0  0
    0.6426   -0.8722    0.3651 N   0  0  0  0  0  0
   -3.7147   -0.9655    0.9216 C   0  0  1  0  0  0
   -1.6869   -0.3442   -0.5610 C   0  0  2  0  0  0
   -3.1245    0.0135   -0.1166 C   0  0  0  0  0  0
   -0.7583   -0.5138    0.6876 C   0  0  1  0  0  0
   -2.7715   -1.0918    2.1329 C   0  0  0  0  0  0
   -1.3586   -1.5129    1.7050 C   0  0  0  0  0  0
   -4.1109   -2.3281    0.3148 C   0  0  0  0  0  0
   -5.5943   -2.1830    0.0569 C   0  0  0  0  0  0
   -0.2783    0.1763   -2.6164 C   0  0  0  0  0  0
   -0.8615    2.0085   -1.1690 C   0  0  0  0  0  0
   -6.0134   -1.3157    1.2320 C   0  0  0  0  0  0
    0.2962    1.4556   -3.2183 C   0  0  0  0  0  0
    0.3486    2.4044   -2.0243 C   0  0  0  0  0  0
    0.8640   -2.2257   -0.1673 C   0  0  0  0  0  0
    1.6784   -0.0288    0.6123 C   0  0  0  0  0  0
    3.1058   -0.4813    0.2423 C   0  0  0  0  0  0
    4.1566    0.5729    0.5591 C   0  0  0  0  0  0
    4.8207    0.5628    1.8044 C   0  0  0  0  0  0
    4.4745    1.5653   -0.3932 C   0  0  0  0  0  0
    5.7928    1.5395    2.0959 C   0  0  0  0  0  0
    5.4465    2.5416   -0.1006 C   0  0  0  0  0  0
    6.1058    2.5289    1.1438 C   0  0  0  0  0  0
   -1.7468   -1.3033   -1.0744 H   0  0  0  0  0  0
   -3.7829    0.0656   -0.9849 H   0  0  0  0  0  0
   -3.1222    1.0152    0.3160 H   0  0  0  0  0  0
   -0.7792    0.4326    1.2260 H   0  0  0  0  0  0
   -3.1732   -1.8019    2.8567 H   0  0  0  0  0  0
   -2.7169   -0.1337    2.6518 H   0  0  0  0  0  0
   -1.4032   -2.5214    1.2950 H   0  0  0  0  0  0
   -0.7188   -1.5702    2.5866 H   0  0  0  0  0  0
   -3.9544   -3.1302    1.0377 H   0  0  0  0  0  0
   -3.5576   -2.5924   -0.5857 H   0  0  0  0  0  0
   -6.1200   -3.1375    0.0209 H   0  0  0  0  0  0
   -5.7677   -1.6568   -0.8827 H   0  0  0  0  0  0
   -0.7585   -0.4560   -3.3637 H   0  0  0  0  0  0
    0.5305   -0.3949   -2.1708 H   0  0  0  0  0  0
   -0.6356    2.1063   -0.1100 H   0  0  0  0  0  0
   -1.7035    2.6704   -1.3736 H   0  0  0  0  0  0
   -6.0939   -1.9122    2.1420 H   0  0  0  0  0  0
   -6.9642   -0.8086    1.0673 H   0  0  0  0  0  0
    1.2709    1.3050   -3.6837 H   0  0  0  0  0  0
   -0.3827    1.8494   -3.9761 H   0  0  0  0  0  0
    0.3319    3.4544   -2.3180 H   0  0  0  0  0  0
    1.2686    2.2333   -1.4641 H   0  0  0  0  0  0
    1.5122   -2.2247   -1.0434 H   0  0  0  0  0  0
    1.3209   -2.8600    0.5933 H   0  0  0  0  0  0
   -0.0593   -2.7097   -0.4824 H   0  0  0  0  0  0
    3.3503   -1.4012    0.7747 H   0  0  0  0  0  0
    3.1561   -0.7010   -0.8244 H   0  0  0  0  0  0
    4.5840   -0.1915    2.5406 H   0  0  0  0  0  0
    3.9709    1.5826   -1.3487 H   0  0  0  0  0  0
    6.2981    1.5300    3.0505 H   0  0  0  0  0  0
    5.6861    3.3007   -0.8306 H   0  0  0  0  0  0
    6.8511    3.2778    1.3681 H   0  0  0  0  0  0
   -1.2449    0.6394   -1.5969 N   0  3  0  0  0  0
   -2.0787    0.7952   -2.1455 H   0  0  0  0  0  0
  1  4  1  0  0  0
  1 14  1  0  0  0
  2 18  2  0  0  0
  3  7  1  0  0  0
  3 17  1  0  0  0
  3 18  1  0  0  0
  4  6  1  0  0  0
  4  8  1  0  0  0
  4 10  1  0  0  0
  5  6  1  0  0  0
  5  7  1  0  0  0
  5 26  1  0  0  0
  5 58  1  0  0  0
  6 27  1  0  0  0
  6 28  1  0  0  0
  7  9  1  0  0  0
  7 29  1  0  0  0
  8  9  1  0  0  0
  8 30  1  0  0  0
  8 31  1  0  0  0
  9 32  1  0  0  0
  9 33  1  0  0  0
 10 11  1  0  0  0
 10 34  1  0  0  0
 10 35  1  0  0  0
 11 14  1  0  0  0
 11 36  1  0  0  0
 11 37  1  0  0  0
 12 15  1  0  0  0
 12 38  1  0  0  0
 12 39  1  0  0  0
 12 58  1  0  0  0
 13 16  1  0  0  0
 13 40  1  0  0  0
 13 41  1  0  0  0
 13 58  1  0  0  0
 14 42  1  0  0  0
 14 43  1  0  0  0
 15 16  1  0  0  0
 15 44  1  0  0  0
 15 45  1  0  0  0
 16 46  1  0  0  0
 16 47  1  0  0  0
 17 48  1  0  0  0
 17 49  1  0  0  0
 17 50  1  0  0  0
 18 19  1  0  0  0
 19 20  1  0  0  0
 19 51  1  0  0  0
 19 52  1  0  0  0
 20 21  2  0  0  0
 20 22  1  0  0  0
 21 23  1  0  0  0
 21 53  1  0  0  0
 22 24  2  0  0  0
 22 54  1  0  0  0
 23 25  2  0  0  0
 23 55  1  0  0  0
 24 25  1  0  0  0
 24 56  1  0  0  0
 25 57  1  0  0  0
 58 59  1  0  0  0
M  CHG  1  58   1
M  END
> <LID>
L024033

> <PC_CID>
11957712

> <Names>
U 69593

> <CAS_Numbers>


$$$$
44216078
                    3D
 Structure written by MMmdl.
 67 71  0  0  1  0            999 V2000
   -5.0928   -1.8628   -2.0295 S   0  0  0  0  0  0
    0.6399    4.4598    3.6616 O   0  0  0  0  0  0
    0.0660    1.0641   -1.1107 O   0  0  0  0  0  0
   -0.8114   -0.5202    0.2388 N   0  0  0  0  0  0
   -2.9729   -2.1657   -0.2564 N   0  0  0  0  0  0
   -3.4310   -3.8554   -1.9228 N   0  0  0  0  0  0
   -2.1418    0.1267    0.3205 C   0  0  2  0  0  0
   -2.2197    1.1673    1.4638 C   0  0  0  0  0  0
   -3.2743   -0.9225    0.4543 C   0  0  0  0  0  0
   -0.8025    2.8432    2.6099 C   0  0  0  0  0  0
   -1.7503    3.3523    0.3947 C   0  0  0  0  0  0
   -0.7729   -1.8115    0.9421 C   0  0  0  0  0  0
    0.2945    3.9064    2.4104 C   0  0  1  0  0  0
   -0.6653    4.4126    0.1451 C   0  0  0  0  0  0
   -1.7736   -2.8001    0.3036 C   0  0  0  0  0  0
   -0.1823    5.0213    1.4682 C   0  0  0  0  0  0
    0.1952   -0.0096   -0.5189 C   0  0  0  0  0  0
    1.5486   -0.7569   -0.6248 C   0  0  0  0  0  0
   -3.7035   -2.6916   -1.3245 C   0  0  0  0  0  0
    2.3382   -0.3398   -1.8692 C   0  0  0  0  0  0
    2.3673   -0.6546    0.6673 C   0  0  0  0  0  0
    2.2905   -1.1494   -3.0266 C   0  0  0  0  0  0
    3.0778   -1.7871    1.1224 C   0  0  0  0  0  0
    3.1156    0.8422   -1.8911 C   0  0  0  0  0  0
    2.4342    0.5432    1.4193 C   0  0  0  0  0  0
   -5.2689   -3.1779   -3.1584 C   0  0  0  0  0  0
   -4.3143   -4.1438   -2.9660 C   0  0  0  0  0  0
    3.0080   -0.7873   -4.1831 C   0  0  0  0  0  0
    3.8311   -1.7295    2.3110 C   0  0  0  0  0  0
    3.8326    1.2041   -3.0479 C   0  0  0  0  0  0
    3.1861    0.6012    2.6081 C   0  0  0  0  0  0
    3.7801    0.3893   -4.1942 C   0  0  0  0  0  0
    3.8838   -0.5362    3.0555 C   0  0  0  0  0  0
   -2.3381    0.6281   -0.6285 H   0  0  0  0  0  0
   -3.2314    1.5665    1.5520 H   0  0  0  0  0  0
   -2.0237    0.6477    2.4030 H   0  0  0  0  0  0
   -3.4230   -1.1777    1.5048 H   0  0  0  0  0  0
   -4.2190   -0.4898    0.1276 H   0  0  0  0  0  0
   -0.4113    2.0386    3.2346 H   0  0  0  0  0  0
   -1.6573    3.2706    3.1372 H   0  0  0  0  0  0
   -2.6390    3.8198    0.8220 H   0  0  0  0  0  0
   -2.0512    2.9176   -0.5586 H   0  0  0  0  0  0
   -1.0648   -1.6270    1.9769 H   0  0  0  0  0  0
    0.2083   -2.2731    1.0198 H   0  0  0  0  0  0
    1.1867    3.4385    1.9937 H   0  0  0  0  0  0
   -1.0532    5.1968   -0.5058 H   0  0  0  0  0  0
    0.1761    3.9606   -0.3824 H   0  0  0  0  0  0
   -1.2608   -3.3237   -0.5040 H   0  0  0  0  0  0
   -2.0676   -3.5622    1.0259 H   0  0  0  0  0  0
    0.6218    5.7341    1.2814 H   0  0  0  0  0  0
   -0.9968    5.5809    1.9311 H   0  0  0  0  0  0
    1.3155   -1.8105   -0.7797 H   0  0  0  0  0  0
    1.3324    5.0910    3.5349 H   0  0  0  0  0  0
    1.7009   -2.0545   -3.0350 H   0  0  0  0  0  0
    3.0463   -2.7093    0.5605 H   0  0  0  0  0  0
    3.1640    1.4848   -1.0257 H   0  0  0  0  0  0
    1.9153    1.4287    1.0862 H   0  0  0  0  0  0
   -6.0610   -3.1602   -3.8922 H   0  0  0  0  0  0
   -4.1897   -5.0619   -3.5212 H   0  0  0  0  0  0
    2.9653   -1.4129   -5.0625 H   0  0  0  0  0  0
    4.3693   -2.6019    2.6514 H   0  0  0  0  0  0
    4.4226    2.1088   -3.0558 H   0  0  0  0  0  0
    3.2301    1.5195    3.1751 H   0  0  0  0  0  0
    4.3300    0.6673   -5.0813 H   0  0  0  0  0  0
    4.4621   -0.4924    3.9668 H   0  0  0  0  0  0
   -1.2568    2.2880    1.3084 N   0  3  2  0  0  0
   -0.4366    1.8934    0.8690 H   0  0  0  0  0  0
  1 19  1  0  0  0
  1 26  1  0  0  0
  2 13  1  0  0  0
  2 53  1  0  0  0
  3 17  2  0  0  0
  4  7  1  0  0  0
  4 12  1  0  0  0
  4 17  1  0  0  0
  5  9  1  0  0  0
  5 15  1  0  0  0
  5 19  1  0  0  0
  6 19  2  0  0  0
  6 27  1  0  0  0
  7  8  1  0  0  0
  7  9  1  0  0  0
  7 34  1  0  0  0
  8 35  1  0  0  0
  8 36  1  0  0  0
  8 66  1  0  0  0
  9 37  1  0  0  0
  9 38  1  0  0  0
 10 13  1  0  0  0
 10 39  1  0  0  0
 10 40  1  0  0  0
 10 66  1  0  0  0
 11 14  1  0  0  0
 11 41  1  0  0  0
 11 42  1  0  0  0
 11 66  1  0  0  0
 12 15  1  0  0  0
 12 43  1  0  0  0
 12 44  1  0  0  0
 13 16  1  0  0  0
 13 45  1  0  0  0
 14 16  1  0  0  0
 14 46  1  0  0  0
 14 47  1  0  0  0
 15 48  1  0  0  0
 15 49  1  0  0  0
 16 50  1  0  0  0
 16 51  1  0  0  0
 17 18  1  0  0  0
 18 20  1  0  0  0
 18 21  1  0  0  0
 18 52  1  0  0  0
 20 22  2  0  0  0
 20 24  1  0  0  0
 21 23  2  0  0  0
 21 25  1  0  0  0
 22 28  1  0  0  0
 22 54  1  0  0  0
 23 29  1  0  0  0
 23 55  1  0  0  0
 24 30  2  0  0  0
 24 56  1  0  0  0
 25 31  2  0  0  0
 25 57  1  0  0  0
 26 27  2  0  0  0
 26 58  1  0  0  0
 27 59  1  0  0  0
 28 32  2  0  0  0
 28 60  1  0  0  0
 29 33  2  0  0  0
 29 61  1  0  0  0
 30 32  1  0  0  0
 30 62  1  0  0  0
 31 33  1  0  0  0
 31 63  1  0  0  0
 32 64  1  0  0  0
 33 65  1  0  0  0
 66 67  1  0  0  0
M  CHG  1  66   1
M  END
> <LID>
L023222

> <PC_CID>
44216078

> <Names>


> <CAS_Numbers>


$$$$
44216079
                    3D
 Structure written by MMmdl.
 66 70  0  0  1  0            999 V2000
    3.4462   -4.2947    1.6407 O   0  0  0  0  0  0
   -0.8058    0.2147   -1.9291 O   0  0  0  0  0  0
   -0.0108    0.1494    0.1948 N   0  0  0  0  0  0
    2.3288    1.5815    0.7791 N   0  0  0  0  0  0
    3.4123    3.2985    1.9296 N   0  0  0  0  0  0
    4.9407    3.8973   -0.3681 N   0  0  0  0  0  0
    1.2695   -0.5400   -0.0694 C   0  0  1  0  0  0
    1.2298   -1.6184   -1.1944 C   0  0  0  0  0  0
    2.2839    0.6006   -0.3147 C   0  0  0  0  0  0
    1.8784   -3.8038   -0.1410 C   0  0  0  0  0  0
    3.6422   -2.3858   -0.8557 C   0  0  0  0  0  0
    3.2100   -4.4710    0.2580 C   0  0  1  0  0  0
    4.2855   -3.7339   -0.5495 C   0  0  0  0  0  0
    0.0210    0.7926    1.5210 C   0  0  0  0  0  0
    1.4234    1.3282    1.9149 C   0  0  0  0  0  0
   -0.9870    0.3963   -0.7241 C   0  0  0  0  0  0
   -2.3883    0.8748   -0.2507 C   0  0  0  0  0  0
    3.2446    2.5899    0.7840 C   0  0  0  0  0  0
   -3.3679    1.0682   -1.4129 C   0  0  0  0  0  0
   -2.9784   -0.0032    0.8588 C   0  0  0  0  0  0
    4.0233    2.9045   -0.3624 C   0  0  0  0  0  0
   -3.7227    2.3745   -1.8188 C   0  0  0  0  0  0
   -3.6279    0.6141    1.9505 C   0  0  0  0  0  0
   -3.9324   -0.0375   -2.0913 C   0  0  0  0  0  0
   -2.8951   -1.4162    0.8200 C   0  0  0  0  0  0
    4.3279    4.2917    1.9271 C   0  0  0  0  0  0
   -4.6248    2.5728   -2.8820 C   0  0  0  0  0  0
   -4.1770   -0.1625    2.9889 C   0  0  0  0  0  0
   -4.8342    0.1610   -3.1546 C   0  0  0  0  0  0
   -3.4440   -2.1925    1.8585 C   0  0  0  0  0  0
    5.0905    4.5902    0.7806 C   0  0  0  0  0  0
   -5.1814    1.4662   -3.5503 C   0  0  0  0  0  0
   -4.0843   -1.5662    2.9441 C   0  0  0  0  0  0
    1.5391   -1.0689    0.8465 H   0  0  0  0  0  0
    1.3729   -1.1409   -2.1644 H   0  0  0  0  0  0
    0.2491   -2.0955   -1.2303 H   0  0  0  0  0  0
    3.2887    0.2187   -0.4764 H   0  0  0  0  0  0
    2.0073    1.1239   -1.2312 H   0  0  0  0  0  0
    1.2056   -4.5114   -0.6268 H   0  0  0  0  0  0
    1.3568   -3.4060    0.7312 H   0  0  0  0  0  0
    3.7508   -1.7620    0.0304 H   0  0  0  0  0  0
    4.0957   -1.8785   -1.7077 H   0  0  0  0  0  0
    3.2134   -5.5385    0.0337 H   0  0  0  0  0  0
    4.4711   -4.2668   -1.4832 H   0  0  0  0  0  0
    5.2393   -3.6439   -0.0274 H   0  0  0  0  0  0
   -0.3416    0.0950    2.2769 H   0  0  0  0  0  0
   -0.6457    1.6515    1.5607 H   0  0  0  0  0  0
    1.2845    2.2182    2.5290 H   0  0  0  0  0  0
    1.9167    0.5984    2.5579 H   0  0  0  0  0  0
   -2.2417    1.8698    0.1681 H   0  0  0  0  0  0
    2.8154   -4.8042    2.1272 H   0  0  0  0  0  0
    3.9217    2.3695   -1.2945 H   0  0  0  0  0  0
   -3.3045    3.2349   -1.3171 H   0  0  0  0  0  0
   -3.7077    1.6905    1.9967 H   0  0  0  0  0  0
   -3.6730   -1.0455   -1.8067 H   0  0  0  0  0  0
   -2.4090   -1.9156   -0.0051 H   0  0  0  0  0  0
    4.4528    4.8497    2.8432 H   0  0  0  0  0  0
   -4.8898    3.5751   -3.1850 H   0  0  0  0  0  0
   -4.6706    0.3194    3.8201 H   0  0  0  0  0  0
   -5.2588   -0.6893   -3.6677 H   0  0  0  0  0  0
   -3.3750   -3.2697    1.8217 H   0  0  0  0  0  0
    5.8212    5.3855    0.7857 H   0  0  0  0  0  0
   -5.8730    1.6184   -4.3658 H   0  0  0  0  0  0
   -4.5061   -2.1617    3.7404 H   0  0  0  0  0  0
    2.2252   -2.7206   -1.0881 N   0  3  2  0  0  0
    2.2169   -3.1707   -1.9925 H   0  0  0  0  0  0
  1 12  1  0  0  0
  1 51  1  0  0  0
  2 16  2  0  0  0
  3  7  1  0  0  0
  3 14  1  0  0  0
  3 16  1  0  0  0
  4  9  1  0  0  0
  4 15  1  0  0  0
  4 18  1  0  0  0
  5 18  2  0  0  0
  5 26  1  0  0  0
  6 21  2  0  0  0
  6 31  1  0  0  0
  7  8  1  0  0  0
  7  9  1  0  0  0
  7 34  1  0  0  0
  8 35  1  0  0  0
  8 36  1  0  0  0
  8 65  1  0  0  0
  9 37  1  0  0  0
  9 38  1  0  0  0
 10 12  1  0  0  0
 10 39  1  0  0  0
 10 40  1  0  0  0
 10 65  1  0  0  0
 11 13  1  0  0  0
 11 41  1  0  0  0
 11 42  1  0  0  0
 11 65  1  0  0  0
 12 13  1  0  0  0
 12 43  1  0  0  0
 13 44  1  0  0  0
 13 45  1  0  0  0
 14 15  1  0  0  0
 14 46  1  0  0  0
 14 47  1  0  0  0
 15 48  1  0  0  0
 15 49  1  0  0  0
 16 17  1  0  0  0
 17 19  1  0  0  0
 17 20  1  0  0  0
 17 50  1  0  0  0
 18 21  1  0  0  0
 19 22  2  0  0  0
 19 24  1  0  0  0
 20 23  2  0  0  0
 20 25  1  0  0  0
 21 52  1  0  0  0
 22 27  1  0  0  0
 22 53  1  0  0  0
 23 28  1  0  0  0
 23 54  1  0  0  0
 24 29  2  0  0  0
 24 55  1  0  0  0
 25 30  2  0  0  0
 25 56  1  0  0  0
 26 31  2  0  0  0
 26 57  1  0  0  0
 27 32  2  0  0  0
 27 58  1  0  0  0
 28 33  2  0  0  0
 28 59  1  0  0  0
 29 32  1  0  0  0
 29 60  1  0  0  0
 30 33  1  0  0  0
 30 61  1  0  0  0
 31 62  1  0  0  0
 32 63  1  0  0  0
 33 64  1  0  0  0
 65 66  1  0  0  0
M  CHG  1  65   1
M  END
> <LID>
L023223

> <PC_CID>
44216079

> <Names>


> <CAS_Numbers>


$$$$
60728
                    3D
 Structure written by MMmdl.
 66 69  0  0  1  0            999 V2000
    4.2842   -0.0692   -2.4441 F   0  0  0  0  0  0
    5.2061   -1.1055    0.7615 O   0  0  0  0  0  0
   -5.6544   -1.7295    0.9328 O   0  0  0  0  0  0
    3.0989   -0.6148    0.0628 N   0  0  0  0  0  0
   -4.9387   -0.4243   -0.8196 N   0  0  0  0  0  0
   -5.5452    0.5091   -1.6522 N   0  0  0  0  0  0
   -6.9739   -0.2749   -0.2709 N   0  0  0  0  0  0
   -6.7436    0.5973   -1.3289 N   0  0  0  0  0  0
    1.7672    0.0920    0.1510 C   0  0  0  0  0  0
    0.9359   -0.5572    1.3094 C   0  0  0  0  0  0
    0.9003   -0.1799   -1.1295 C   0  0  0  0  0  0
   -0.5609   -0.1595    1.3676 C   0  0  0  0  0  0
   -0.5398    0.3423   -1.0210 C   0  0  0  0  0  0
    1.9451    1.6282    0.2604 C   0  0  0  0  0  0
   -2.6962   -0.0306    0.1461 C   0  0  0  0  0  0
    3.2620   -1.6314   -0.9312 C   0  0  0  0  0  0
    4.1750   -0.4391    0.8953 C   0  0  0  0  0  0
    2.5718    2.3289   -0.7990 C   0  0  0  0  0  0
    1.5323    2.3737    1.3946 C   0  0  0  0  0  0
   -3.5207   -0.7366   -0.9468 C   0  0  0  0  0  0
    4.1740    0.6065    2.0283 C   0  0  0  0  0  0
    2.7578    3.7229   -0.7430 C   0  0  0  0  0  0
    1.7181    3.7682    1.4532 C   0  0  0  0  0  0
    3.8598   -1.3268   -2.1762 C   0  0  0  0  0  0
    2.8430   -2.9546   -0.6632 C   0  0  0  0  0  0
    2.3267    4.4458    0.3825 C   0  0  0  0  0  0
    5.3008    0.4088    3.0567 C   0  0  0  0  0  0
    4.0177   -2.3341   -3.1476 C   0  0  0  0  0  0
    3.0033   -3.9586   -1.6375 C   0  0  0  0  0  0
   -5.8389   -0.9027    0.0410 C   0  0  0  0  0  0
    3.5879   -3.6481   -2.8802 C   0  0  0  0  0  0
   -8.2918   -0.3771    0.3432 C   0  0  0  0  0  0
   -8.3894    0.4930    1.6027 C   0  0  0  0  0  0
    1.3811   -0.3808    2.2851 H   0  0  0  0  0  0
    0.9661   -1.6402    1.1897 H   0  0  0  0  0  0
    0.8034   -1.2484   -1.3227 H   0  0  0  0  0  0
    1.3663    0.2342   -2.0233 H   0  0  0  0  0  0
   -1.0512   -0.7638    2.1321 H   0  0  0  0  0  0
   -0.6964    0.8766    1.6722 H   0  0  0  0  0  0
   -0.5588    1.4203   -0.8539 H   0  0  0  0  0  0
   -1.0437    0.1664   -1.9706 H   0  0  0  0  0  0
   -3.0819   -0.3429    1.1179 H   0  0  0  0  0  0
   -2.8313    1.0512    0.0960 H   0  0  0  0  0  0
    2.9213    1.8009   -1.6722 H   0  0  0  0  0  0
    1.0961    1.8967    2.2567 H   0  0  0  0  0  0
   -3.1886   -0.4449   -1.9431 H   0  0  0  0  0  0
   -3.3885   -1.8176   -0.8795 H   0  0  0  0  0  0
    4.2832    1.5978    1.5893 H   0  0  0  0  0  0
    3.2359    0.5883    2.5723 H   0  0  0  0  0  0
    3.2353    4.2370   -1.5643 H   0  0  0  0  0  0
    1.4008    4.3180    2.3271 H   0  0  0  0  0  0
    2.4031   -3.2062    0.2901 H   0  0  0  0  0  0
    2.4714    5.5152    0.4288 H   0  0  0  0  0  0
    5.2311    1.1530    3.8502 H   0  0  0  0  0  0
    5.2463   -0.5755    3.5232 H   0  0  0  0  0  0
    6.2851    0.5125    2.5983 H   0  0  0  0  0  0
    4.4722   -2.0983   -4.0985 H   0  0  0  0  0  0
    2.6812   -4.9685   -1.4301 H   0  0  0  0  0  0
    3.7121   -4.4192   -3.6264 H   0  0  0  0  0  0
   -9.0535   -0.0760   -0.3772 H   0  0  0  0  0  0
   -8.4952   -1.4194    0.5927 H   0  0  0  0  0  0
   -9.3809    0.4177    2.0495 H   0  0  0  0  0  0
   -7.6627    0.1840    2.3548 H   0  0  0  0  0  0
   -8.2079    1.5430    1.3712 H   0  0  0  0  0  0
   -1.2508   -0.3628    0.0718 N   0  3  0  0  0  0
   -1.1934   -1.3518   -0.1263 H   0  0  0  0  0  0
  1 24  1  0  0  0
  2 17  2  0  0  0
  3 30  2  0  0  0
  4  9  1  0  0  0
  4 16  1  0  0  0
  4 17  1  0  0  0
  5  6  1  0  0  0
  5 20  1  0  0  0
  5 30  1  0  0  0
  6  8  2  0  0  0
  7  8  1  0  0  0
  7 30  1  0  0  0
  7 32  1  0  0  0
  9 10  1  0  0  0
  9 11  1  0  0  0
  9 14  1  0  0  0
 10 12  1  0  0  0
 10 34  1  0  0  0
 10 35  1  0  0  0
 11 13  1  0  0  0
 11 36  1  0  0  0
 11 37  1  0  0  0
 12 38  1  0  0  0
 12 39  1  0  0  0
 12 65  1  0  0  0
 13 40  1  0  0  0
 13 41  1  0  0  0
 13 65  1  0  0  0
 14 18  2  0  0  0
 14 19  1  0  0  0
 15 20  1  0  0  0
 15 42  1  0  0  0
 15 43  1  0  0  0
 15 65  1  0  0  0
 16 24  1  0  0  0
 16 25  2  0  0  0
 17 21  1  0  0  0
 18 22  1  0  0  0
 18 44  1  0  0  0
 19 23  2  0  0  0
 19 45  1  0  0  0
 20 46  1  0  0  0
 20 47  1  0  0  0
 21 27  1  0  0  0
 21 48  1  0  0  0
 21 49  1  0  0  0
 22 26  2  0  0  0
 22 50  1  0  0  0
 23 26  1  0  0  0
 23 51  1  0  0  0
 24 28  2  0  0  0
 25 29  1  0  0  0
 25 52  1  0  0  0
 26 53  1  0  0  0
 27 54  1  0  0  0
 27 55  1  0  0  0
 27 56  1  0  0  0
 28 31  1  0  0  0
 28 57  1  0  0  0
 29 31  2  0  0  0
 29 58  1  0  0  0
 31 59  1  0  0  0
 32 33  1  0  0  0
 32 60  1  0  0  0
 32 61  1  0  0  0
 33 62  1  0  0  0
 33 63  1  0  0  0
 33 64  1  0  0  0
 65 66  1  0  0  0
M  CHG  1  65   1
M  END
> <LID>
L002369

> <PC_CID>
60728

> <Names>
trefentanil

> <CAS_Numbers>
120656-74-8

$$$$
13247566
                    3D
 Structure written by MMmdl.
 49 53  0  0  1  0            999 V2000
    2.5208   -0.0690   -1.5200 O   0  0  0  0  0  0
   -0.7798    2.6619   -0.0156 O   0  0  0  0  0  0
    3.8999    2.0610   -0.4921 O   0  0  0  0  0  0
    3.8956   -2.6200   -0.8757 O   0  0  0  0  0  0
   -4.9564   -0.8021   -0.9042 O   0  0  0  0  0  0
    0.4995    0.6180   -0.4822 C   0  0  2  0  0  0
   -0.1342    1.5442    0.5816 C   0  0  2  0  0  0
   -1.2172    0.6970    1.3049 C   0  0  2  0  0  0
    1.7823    1.1318   -1.2094 C   0  0  1  0  0  0
   -0.5938    0.2229   -1.5091 C   0  0  0  0  0  0
    1.0368   -0.6330    0.1484 C   0  0  0  0  0  0
    0.9382    2.1466    1.5158 C   0  0  0  0  0  0
   -0.6168   -0.5640    2.0007 C   0  0  0  0  0  0
   -1.8154   -0.4404   -0.8418 C   0  0  0  0  0  0
    0.5062   -1.2976    1.2642 C   0  0  0  0  0  0
    2.0169    2.9120    0.7269 C   0  0  0  0  0  0
    2.6811    2.0296   -0.3313 C   0  0  0  0  0  0
    2.1601   -0.9895   -0.5733 C   0  0  0  0  0  0
   -3.5267   -0.2092    0.9579 C   0  0  0  0  0  0
    1.1557   -2.4972    1.6254 C   0  0  0  0  0  0
    2.7874   -2.1962   -0.2037 C   0  0  0  0  0  0
    2.2754   -2.9513    0.8820 C   0  0  0  0  0  0
   -4.8026    0.1163    0.1642 C   0  0  0  0  0  0
   -6.1195   -0.5532   -1.6745 C   0  0  0  0  0  0
   -1.6778    1.3185    2.0746 H   0  0  0  0  0  0
    1.5313    1.6811   -2.1170 H   0  0  0  0  0  0
   -0.1855   -0.4544   -2.2606 H   0  0  0  0  0  0
   -0.9205    1.1037   -2.0629 H   0  0  0  0  0  0
    1.4223    1.3664    2.1041 H   0  0  0  0  0  0
    0.4739    2.8161    2.2410 H   0  0  0  0  0  0
   -1.3928   -1.2827    2.2616 H   0  0  0  0  0  0
   -0.1908   -0.2522    2.9547 H   0  0  0  0  0  0
   -2.6041   -0.5287   -1.5871 H   0  0  0  0  0  0
   -1.5787   -1.4586   -0.5315 H   0  0  0  0  0  0
    2.7806    3.2852    1.4096 H   0  0  0  0  0  0
    1.5859    3.7822    0.2318 H   0  0  0  0  0  0
   -1.0311    3.2692    0.6646 H   0  0  0  0  0  0
   -3.4354   -1.2837    1.1223 H   0  0  0  0  0  0
   -3.6432    0.2401    1.9448 H   0  0  0  0  0  0
    0.8132   -3.0611    2.4806 H   0  0  0  0  0  0
    2.7653   -3.8701    1.1698 H   0  0  0  0  0  0
   -5.6666    0.0282    0.8247 H   0  0  0  0  0  0
   -4.7789    1.1448   -0.2003 H   0  0  0  0  0  0
    4.1537   -2.0207   -1.5598 H   0  0  0  0  0  0
   -6.1888   -1.2847   -2.4796 H   0  0  0  0  0  0
   -7.0215   -0.6357   -1.0667 H   0  0  0  0  0  0
   -6.0895    0.4400   -2.1245 H   0  0  0  0  0  0
   -2.2984    0.3457    0.3268 N   0  3  1  0  0  0
   -2.5722    1.2413   -0.0537 H   0  0  0  0  0  0
  1  9  1  0  0  0
  1 18  1  0  0  0
  2  7  1  0  0  0
  2 37  1  0  0  0
  3 17  2  0  0  0
  4 21  1  0  0  0
  4 44  1  0  0  0
  5 23  1  0  0  0
  5 24  1  0  0  0
  6  7  1  0  0  0
  6  9  1  0  0  0
  6 10  1  0  0  0
  6 11  1  0  0  0
  7  8  1  0  0  0
  7 12  1  0  0  0
  8 13  1  0  0  0
  8 25  1  0  0  0
  8 48  1  0  0  0
  9 17  1  0  0  0
  9 26  1  0  0  0
 10 14  1  0  0  0
 10 27  1  0  0  0
 10 28  1  0  0  0
 11 15  2  0  0  0
 11 18  1  0  0  0
 12 16  1  0  0  0
 12 29  1  0  0  0
 12 30  1  0  0  0
 13 15  1  0  0  0
 13 31  1  0  0  0
 13 32  1  0  0  0
 14 33  1  0  0  0
 14 34  1  0  0  0
 14 48  1  0  0  0
 15 20  1  0  0  0
 16 17  1  0  0  0
 16 35  1  0  0  0
 16 36  1  0  0  0
 18 21  2  0  0  0
 19 23  1  0  0  0
 19 38  1  0  0  0
 19 39  1  0  0  0
 19 48  1  0  0  0
 20 22  2  0  0  0
 20 40  1  0  0  0
 21 22  1  0  0  0
 22 41  1  0  0  0
 23 42  1  0  0  0
 23 43  1  0  0  0
 24 45  1  0  0  0
 24 46  1  0  0  0
 24 47  1  0  0  0
 48 49  1  0  0  0
M  CHG  1  48   1
M  END
> <LID>
L005144

> <PC_CID>
13247566

> <Names>


> <CAS_Numbers>


$$$$
10435215
                    3D
 Structure written by MMmdl.
 71 75  0  0  1  0            999 V2000
    2.4155   -2.3292    0.5627 O   0  0  0  0  0  0
    3.9640    0.8219    0.0215 N   0  0  0  0  0  0
    4.4651   -1.4514    0.1083 N   0  0  0  0  0  0
    6.4934   -5.5688   -1.5321 N   0  0  0  0  0  0
    2.7138    0.0923    0.3234 C   0  0  0  0  0  0
    2.1351    0.4748    1.7176 C   0  0  0  0  0  0
    1.6442    0.2780   -0.7934 C   0  0  0  0  0  0
    0.7220   -0.0829    1.9793 C   0  0  0  0  0  0
    0.2520   -0.2698   -0.4212 C   0  0  0  0  0  0
    3.1617   -1.3734    0.3512 C   0  0  0  0  0  0
    5.0569   -0.1498   -0.1108 C   0  0  0  0  0  0
   -1.6157   -0.1021    1.2005 C   0  0  0  0  0  0
    4.1752    2.1680   -0.1273 C   0  0  0  0  0  0
    5.2640   -2.6695    0.0266 C   0  0  0  0  0  0
   -2.6439    0.7310    0.4089 C   0  0  0  0  0  0
   -4.1072    0.4340    0.8104 C   0  0  0  0  0  0
    5.4762    2.6580   -0.4224 C   0  0  0  0  0  0
    3.1385    3.1299    0.0002 C   0  0  0  0  0  0
    5.0533   -3.3825   -1.3156 C   0  0  0  0  0  0
   -5.1072    1.3845    0.1585 C   0  0  0  0  0  0
   -4.5082   -1.0259    0.6157 C   0  0  0  0  0  0
    5.7282    4.0341   -0.5817 C   0  0  0  0  0  0
    3.3874    4.5069   -0.1585 C   0  0  0  0  0  0
    4.6832    4.9627   -0.4500 C   0  0  0  0  0  0
    5.8591   -4.6062   -1.4370 C   0  0  0  0  0  0
   -5.1055    1.6045   -1.2380 C   0  0  0  0  0  0
   -5.0973   -1.7385    1.6833 C   0  0  0  0  0  0
   -6.0600    2.0532    0.9587 C   0  0  0  0  0  0
   -4.3009   -1.6815   -0.6193 C   0  0  0  0  0  0
   -6.0387    2.4826   -1.8224 C   0  0  0  0  0  0
   -5.4696   -3.0870    1.5211 C   0  0  0  0  0  0
   -6.9931    2.9314    0.3741 C   0  0  0  0  0  0
   -4.6731   -3.0300   -0.7812 C   0  0  0  0  0  0
   -6.9824    3.1472   -1.0168 C   0  0  0  0  0  0
   -5.2569   -3.7337    0.2890 C   0  0  0  0  0  0
    2.0960    1.5509    1.8583 H   0  0  0  0  0  0
    2.8046    0.1255    2.5057 H   0  0  0  0  0  0
    1.5240    1.3214   -1.0697 H   0  0  0  0  0  0
    1.9800   -0.2057   -1.7123 H   0  0  0  0  0  0
    0.3578    0.3314    2.9203 H   0  0  0  0  0  0
    0.7402   -1.1649    2.1118 H   0  0  0  0  0  0
    0.2535   -1.3593   -0.3867 H   0  0  0  0  0  0
   -0.4435    0.0023   -1.2140 H   0  0  0  0  0  0
    5.8337    0.0319    0.6338 H   0  0  0  0  0  0
    5.4987   -0.1102   -1.1079 H   0  0  0  0  0  0
   -1.7558   -1.1707    1.0310 H   0  0  0  0  0  0
   -1.7997    0.0647    2.2628 H   0  0  0  0  0  0
    6.3185   -2.4208    0.1528 H   0  0  0  0  0  0
    5.0028   -3.3345    0.8513 H   0  0  0  0  0  0
   -2.4434    1.7890    0.5837 H   0  0  0  0  0  0
   -2.5120    0.5735   -0.6600 H   0  0  0  0  0  0
   -4.1602    0.6294    1.8827 H   0  0  0  0  0  0
    6.3189    1.9935   -0.5353 H   0  0  0  0  0  0
    2.1231    2.8531    0.2223 H   0  0  0  0  0  0
    4.0072   -3.6614   -1.4449 H   0  0  0  0  0  0
    5.3192   -2.7251   -2.1437 H   0  0  0  0  0  0
    6.7279    4.3765   -0.8057 H   0  0  0  0  0  0
    2.5789    5.2157   -0.0558 H   0  0  0  0  0  0
    4.8747    6.0188   -0.5718 H   0  0  0  0  0  0
   -4.3928    1.1012   -1.8734 H   0  0  0  0  0  0
   -5.2686   -1.2544    2.6337 H   0  0  0  0  0  0
   -6.0827    1.8949    2.0270 H   0  0  0  0  0  0
   -3.8565   -1.1571   -1.4516 H   0  0  0  0  0  0
   -6.0314    2.6453   -2.8902 H   0  0  0  0  0  0
   -5.9197   -3.6253    2.3422 H   0  0  0  0  0  0
   -7.7183    3.4387    0.9932 H   0  0  0  0  0  0
   -4.5117   -3.5246   -1.7277 H   0  0  0  0  0  0
   -7.6985    3.8200   -1.4654 H   0  0  0  0  0  0
   -5.5432   -4.7677    0.1644 H   0  0  0  0  0  0
   -0.2139    0.2723    0.8823 N   0  3  0  0  0  0
   -0.1966    1.2797    0.8112 H   0  0  0  0  0  0
  1 10  2  0  0  0
  2  5  1  0  0  0
  2 11  1  0  0  0
  2 13  1  0  0  0
  3 10  1  0  0  0
  3 11  1  0  0  0
  3 14  1  0  0  0
  4 25  3  0  0  0
  5  6  1  0  0  0
  5  7  1  0  0  0
  5 10  1  0  0  0
  6  8  1  0  0  0
  6 36  1  0  0  0
  6 37  1  0  0  0
  7  9  1  0  0  0
  7 38  1  0  0  0
  7 39  1  0  0  0
  8 40  1  0  0  0
  8 41  1  0  0  0
  8 70  1  0  0  0
  9 42  1  0  0  0
  9 43  1  0  0  0
  9 70  1  0  0  0
 11 44  1  0  0  0
 11 45  1  0  0  0
 12 15  1  0  0  0
 12 46  1  0  0  0
 12 47  1  0  0  0
 12 70  1  0  0  0
 13 17  2  0  0  0
 13 18  1  0  0  0
 14 19  1  0  0  0
 14 48  1  0  0  0
 14 49  1  0  0  0
 15 16  1  0  0  0
 15 50  1  0  0  0
 15 51  1  0  0  0
 16 20  1  0  0  0
 16 21  1  0  0  0
 16 52  1  0  0  0
 17 22  1  0  0  0
 17 53  1  0  0  0
 18 23  2  0  0  0
 18 54  1  0  0  0
 19 25  1  0  0  0
 19 55  1  0  0  0
 19 56  1  0  0  0
 20 26  2  0  0  0
 20 28  1  0  0  0
 21 27  2  0  0  0
 21 29  1  0  0  0
 22 24  2  0  0  0
 22 57  1  0  0  0
 23 24  1  0  0  0
 23 58  1  0  0  0
 24 59  1  0  0  0
 26 30  1  0  0  0
 26 60  1  0  0  0
 27 31  1  0  0  0
 27 61  1  0  0  0
 28 32  2  0  0  0
 28 62  1  0  0  0
 29 33  2  0  0  0
 29 63  1  0  0  0
 30 34  2  0  0  0
 30 64  1  0  0  0
 31 35  2  0  0  0
 31 65  1  0  0  0
 32 34  1  0  0  0
 32 66  1  0  0  0
 33 35  1  0  0  0
 33 67  1  0  0  0
 34 68  1  0  0  0
 35 69  1  0  0  0
 70 71  1  0  0  0
M  CHG  1  70   1
M  END
> <LID>
L022592

> <PC_CID>
10435215

> <Names>


> <CAS_Numbers>


$$$$
19072034
                    3D
 Structure written by MMmdl.
 49 52  0  0  1  0            999 V2000
   -0.1854   -1.2155   -2.3316 O   0  0  0  0  0  0
   -0.7271   -4.0855    1.3707 O   0  0  0  0  0  0
   -4.4826    1.9219    1.7167 O   0  0  0  0  0  0
   -0.6469   -0.7387    0.0525 C   0  0  2  0  0  0
    0.4362   -0.9538   -1.0842 C   0  0  2  0  0  0
    1.3753    0.2757   -1.2377 C   0  0  0  0  0  0
    0.1600   -0.3709    1.3361 C   0  0  0  0  0  0
    4.0708    1.7558    0.9592 C   0  0  0  0  0  0
    1.3048   -2.2274   -0.8547 C   0  0  0  0  0  0
    1.0502    0.8673    1.1298 C   0  0  0  0  0  0
   -1.4453   -2.0569    0.2770 C   0  0  0  0  0  0
    3.0014    1.7542   -0.1192 C   0  0  0  0  0  0
    5.3675    2.5000    0.7363 C   0  0  0  0  0  0
    5.3621    0.9920    0.7739 C   0  0  0  0  0  0
   -1.7009    0.3820   -0.1898 C   0  0  0  0  0  0
    0.4941   -3.5141   -0.6258 C   0  0  0  0  0  0
   -0.5700   -3.2978    0.4409 C   0  0  0  0  0  0
   -2.6307    0.6722    0.8425 C   0  0  0  0  0  0
   -1.8190    1.1264   -1.3936 C   0  0  0  0  0  0
   -3.6124    1.6707    0.6964 C   0  0  0  0  0  0
   -2.7994    2.1262   -1.5439 C   0  0  0  0  0  0
   -3.6958    2.4041   -0.4989 C   0  0  0  0  0  0
    0.8493    1.1543   -1.6054 H   0  0  0  0  0  0
    2.1401    0.0551   -1.9840 H   0  0  0  0  0  0
    0.7955   -1.1960    1.6549 H   0  0  0  0  0  0
   -0.4961   -0.2032    2.1888 H   0  0  0  0  0  0
    3.6874    1.8138    1.9755 H   0  0  0  0  0  0
    1.9761   -2.0920   -0.0070 H   0  0  0  0  0  0
    1.9679   -2.3839   -1.7070 H   0  0  0  0  0  0
    0.4441    1.7454    0.9018 H   0  0  0  0  0  0
    1.5663    1.0825    2.0647 H   0  0  0  0  0  0
   -2.1048   -2.2332   -0.5733 H   0  0  0  0  0  0
   -2.0879   -1.9756    1.1535 H   0  0  0  0  0  0
    2.4766    2.7107   -0.1145 H   0  0  0  0  0  0
    3.4989    1.6778   -1.0874 H   0  0  0  0  0  0
    5.8003    3.0220    1.5875 H   0  0  0  0  0  0
    5.5226    2.9766   -0.2298 H   0  0  0  0  0  0
    5.5135    0.4667   -0.1671 H   0  0  0  0  0  0
    5.7899    0.5092    1.6504 H   0  0  0  0  0  0
    1.1516   -4.3323   -0.3307 H   0  0  0  0  0  0
   -0.0018   -3.8184   -1.5477 H   0  0  0  0  0  0
    0.4808   -1.4079   -2.9740 H   0  0  0  0  0  0
   -2.6079    0.1220    1.7709 H   0  0  0  0  0  0
   -1.1795    0.9621   -2.2423 H   0  0  0  0  0  0
   -2.8655    2.6794   -2.4692 H   0  0  0  0  0  0
   -4.4461    3.1715   -0.6218 H   0  0  0  0  0  0
   -5.1065    2.6025    1.5157 H   0  0  0  0  0  0
    2.0366    0.6379    0.0432 N   0  3  2  0  0  0
    2.5833   -0.1682    0.3109 H   0  0  0  0  0  0
  1  5  1  0  0  0
  1 42  1  0  0  0
  2 17  2  0  0  0
  3 20  1  0  0  0
  3 47  1  0  0  0
  4  5  1  0  0  0
  4  7  1  0  0  0
  4 11  1  0  0  0
  4 15  1  0  0  0
  5  6  1  0  0  0
  5  9  1  0  0  0
  6 23  1  0  0  0
  6 24  1  0  0  0
  6 48  1  0  0  0
  7 10  1  0  0  0
  7 25  1  0  0  0
  7 26  1  0  0  0
  8 12  1  0  0  0
  8 13  1  0  0  0
  8 14  1  0  0  0
  8 27  1  0  0  0
  9 16  1  0  0  0
  9 28  1  0  0  0
  9 29  1  0  0  0
 10 30  1  0  0  0
 10 31  1  0  0  0
 10 48  1  0  0  0
 11 17  1  0  0  0
 11 32  1  0  0  0
 11 33  1  0  0  0
 12 34  1  0  0  0
 12 35  1  0  0  0
 12 48  1  0  0  0
 13 14  1  0  0  0
 13 36  1  0  0  0
 13 37  1  0  0  0
 14 38  1  0  0  0
 14 39  1  0  0  0
 15 18  2  0  0  0
 15 19  1  0  0  0
 16 17  1  0  0  0
 16 40  1  0  0  0
 16 41  1  0  0  0
 18 20  1  0  0  0
 18 43  1  0  0  0
 19 21  2  0  0  0
 19 44  1  0  0  0
 20 22  2  0  0  0
 21 22  1  0  0  0
 21 45  1  0  0  0
 22 46  1  0  0  0
 48 49  1  0  0  0
M  CHG  1  48   1
M  END
> <LID>
L009520

> <PC_CID>
19072034

> <Names>


> <CAS_Numbers>


$$$$
19896749
                    3D
 Structure written by MMmdl.
 51 53  0  0  1  0            999 V2000
    5.4395   -2.1534    2.5855 Cl  0  0  0  0  0  0
    7.2632    0.0481    1.1723 Cl  0  0  0  0  0  0
    0.9388    0.5047    0.4901 O   0  0  0  0  0  0
   -4.1602   -2.2680    1.9377 O   0  0  0  0  0  0
   -0.6716   -0.5619   -0.6881 N   0  0  0  0  0  0
   -2.9128   -2.0576    0.0362 N   0  0  0  0  0  0
   -3.3514   -4.0946    0.9414 N   0  0  0  0  0  0
   -1.7704    0.1684   -0.0194 C   0  0  1  0  0  0
   -1.9015    1.6036   -0.5821 C   0  0  0  0  0  0
   -3.1128   -0.6062   -0.0891 C   0  0  0  0  0  0
   -3.2552    3.6945   -0.5276 C   0  0  0  0  0  0
   -2.5912    2.7130    1.5482 C   0  0  0  0  0  0
   -3.2608    4.7748    0.5614 C   0  0  0  0  0  0
   -3.3515    3.9956    1.8681 C   0  0  0  0  0  0
   -1.1209   -1.5696   -1.6607 C   0  0  0  0  0  0
   -1.9906   -2.6344   -0.9622 C   0  0  0  0  0  0
    0.6239   -0.3499   -0.3413 C   0  0  0  0  0  0
   -3.5000   -2.7696    1.0301 C   0  0  0  0  0  0
    1.7280   -1.1999   -1.0001 C   0  0  0  0  0  0
    3.1141   -0.8919   -0.4519 C   0  0  0  0  0  0
    3.5976   -1.5791    0.6816 C   0  0  0  0  0  0
    3.9248    0.0799   -1.0751 C   0  0  0  0  0  0
    4.8794   -1.2963    1.1938 C   0  0  0  0  0  0
    5.2063    0.3637   -0.5655 C   0  0  0  0  0  0
    5.6871   -0.3211    0.5680 C   0  0  0  0  0  0
   -1.5152    0.2244    1.0406 H   0  0  0  0  0  0
   -0.9454    2.1279   -0.5478 H   0  0  0  0  0  0
   -2.1810    1.5462   -1.6352 H   0  0  0  0  0  0
   -3.8042   -0.2084    0.6550 H   0  0  0  0  0  0
   -3.5983   -0.4299   -1.0503 H   0  0  0  0  0  0
   -2.5497    3.9520   -1.3192 H   0  0  0  0  0  0
   -4.2407    3.5976   -0.9845 H   0  0  0  0  0  0
   -2.8662    1.8917    2.2108 H   0  0  0  0  0  0
   -1.5190    2.8880    1.6545 H   0  0  0  0  0  0
   -2.3216    5.3291    0.5324 H   0  0  0  0  0  0
   -4.0733    5.4922    0.4407 H   0  0  0  0  0  0
   -4.3938    3.7657    2.0940 H   0  0  0  0  0  0
   -2.9328    4.5374    2.7168 H   0  0  0  0  0  0
   -1.7103   -1.0572   -2.4225 H   0  0  0  0  0  0
   -0.3208   -2.0579   -2.2142 H   0  0  0  0  0  0
   -1.3136   -3.3350   -0.4700 H   0  0  0  0  0  0
   -2.5550   -3.2029   -1.7026 H   0  0  0  0  0  0
    1.5180   -2.2584   -0.8409 H   0  0  0  0  0  0
    1.7273   -1.0254   -2.0768 H   0  0  0  0  0  0
   -3.7758   -4.6869    1.6398 H   0  0  0  0  0  0
   -2.8241   -4.4958    0.1807 H   0  0  0  0  0  0
    2.9821   -2.3240    1.1647 H   0  0  0  0  0  0
    3.5651    0.6129   -1.9431 H   0  0  0  0  0  0
    5.8216    1.1102   -1.0460 H   0  0  0  0  0  0
   -2.9160    2.4126    0.1364 N   0  3  0  0  0  0
   -3.7721    1.8765    0.1489 H   0  0  0  0  0  0
  1 23  1  0  0  0
  2 25  1  0  0  0
  3 17  2  0  0  0
  4 18  2  0  0  0
  5  8  1  0  0  0
  5 15  1  0  0  0
  5 17  1  0  0  0
  6 10  1  0  0  0
  6 16  1  0  0  0
  6 18  1  0  0  0
  7 18  1  0  0  0
  7 45  1  0  0  0
  7 46  1  0  0  0
  8  9  1  0  0  0
  8 10  1  0  0  0
  8 26  1  0  0  0
  9 27  1  0  0  0
  9 28  1  0  0  0
  9 50  1  0  0  0
 10 29  1  0  0  0
 10 30  1  0  0  0
 11 13  1  0  0  0
 11 31  1  0  0  0
 11 32  1  0  0  0
 11 50  1  0  0  0
 12 14  1  0  0  0
 12 33  1  0  0  0
 12 34  1  0  0  0
 12 50  1  0  0  0
 13 14  1  0  0  0
 13 35  1  0  0  0
 13 36  1  0  0  0
 14 37  1  0  0  0
 14 38  1  0  0  0
 15 16  1  0  0  0
 15 39  1  0  0  0
 15 40  1  0  0  0
 16 41  1  0  0  0
 16 42  1  0  0  0
 17 19  1  0  0  0
 19 20  1  0  0  0
 19 43  1  0  0  0
 19 44  1  0  0  0
 20 21  2  0  0  0
 20 22  1  0  0  0
 21 23  1  0  0  0
 21 47  1  0  0  0
 22 24  2  0  0  0
 22 48  1  0  0  0
 23 25  2  0  0  0
 24 25  1  0  0  0
 24 49  1  0  0  0
 50 51  1  0  0  0
M  CHG  1  50   1
M  END
> <LID>
L004346

> <PC_CID>
19896749

> <Names>


> <CAS_Numbers>


$$$$
9839288
                    3D
 Structure written by MMmdl.
 45 46  0  0  1  0            999 V2000
    3.2506   -0.4288    0.1474 O   0  0  0  0  0  0
   -4.5525   -1.2074    0.3752 O   0  0  0  0  0  0
   -0.2073    1.2043    0.1879 C   0  0  0  0  0  0
    1.2980    0.9002    0.5169 C   0  0  1  0  0  0
    1.8978   -0.2761   -0.2723 C   0  0  2  0  0  0
   -1.0140   -0.1217    0.1820 C   0  0  0  0  0  0
   -0.7136    2.1359    1.3542 C   0  0  0  0  0  0
   -0.2731    1.9084   -1.2157 C   0  0  0  0  0  0
    1.1215   -1.5658    0.0030 C   0  0  0  0  0  0
   -0.3846   -1.3949    0.0707 C   0  0  0  0  0  0
   -2.4278   -0.0972    0.2918 C   0  0  0  0  0  0
   -1.7498    3.2397    1.0588 C   0  0  0  0  0  0
   -1.6030    1.8860   -1.9924 C   0  0  0  0  0  0
   -1.1580   -2.5757    0.0573 C   0  0  0  0  0  0
   -3.1936   -1.2770    0.2761 C   0  0  0  0  0  0
   -2.5576   -2.5222    0.1563 C   0  0  0  0  0  0
    4.0602   -1.2024   -0.7268 C   0  0  0  0  0  0
    5.4890   -1.2236   -0.1795 C   0  0  0  0  0  0
    1.3597    0.6198    1.5704 H   0  0  0  0  0  0
    1.8722   -0.0535   -1.3387 H   0  0  0  0  0  0
   -1.0641    1.5231    2.1861 H   0  0  0  0  0  0
    0.1258    2.6845    1.7793 H   0  0  0  0  0  0
    0.0720    2.9391   -1.1340 H   0  0  0  0  0  0
    0.4368    1.4382   -1.8923 H   0  0  0  0  0  0
    1.4358   -1.9762    0.9636 H   0  0  0  0  0  0
    1.3630   -2.3170   -0.7496 H   0  0  0  0  0  0
    3.1066    1.8478    0.6208 H   0  0  0  0  0  0
    2.1457    2.4009   -0.5992 H   0  0  0  0  0  0
   -2.9592    0.8333    0.3741 H   0  0  0  0  0  0
   -1.9294    3.8259    1.9603 H   0  0  0  0  0  0
   -1.4004    3.9388    0.2999 H   0  0  0  0  0  0
   -2.7187    2.8598    0.7478 H   0  0  0  0  0  0
   -1.5017    2.4380   -2.9270 H   0  0  0  0  0  0
   -1.8982    0.8708   -2.2578 H   0  0  0  0  0  0
   -2.4211    2.3440   -1.4412 H   0  0  0  0  0  0
   -0.6731   -3.5379   -0.0223 H   0  0  0  0  0  0
   -3.1345   -3.4353    0.1448 H   0  0  0  0  0  0
    3.6837   -2.2224   -0.8046 H   0  0  0  0  0  0
    4.0558   -0.7700   -1.7283 H   0  0  0  0  0  0
    6.1449   -1.8075   -0.8255 H   0  0  0  0  0  0
    5.8980   -0.2153   -0.1116 H   0  0  0  0  0  0
    5.5202   -1.6665    0.8163 H   0  0  0  0  0  0
   -4.9717   -2.0539    0.3543 H   0  0  0  0  0  0
    2.1607    2.0929    0.3624 N   0  3  0  0  0  0
    1.8276    2.8353    0.9605 H   0  0  0  0  0  0
  1  5  1  0  0  0
  1 17  1  0  0  0
  2 15  1  0  0  0
  2 43  1  0  0  0
  3  4  1  0  0  0
  3  6  1  0  0  0
  3  7  1  0  0  0
  3  8  1  0  0  0
  4  5  1  0  0  0
  4 19  1  0  0  0
  4 44  1  0  0  0
  5  9  1  0  0  0
  5 20  1  0  0  0
  6 10  2  0  0  0
  6 11  1  0  0  0
  7 12  1  0  0  0
  7 21  1  0  0  0
  7 22  1  0  0  0
  8 13  1  0  0  0
  8 23  1  0  0  0
  8 24  1  0  0  0
  9 10  1  0  0  0
  9 25  1  0  0  0
  9 26  1  0  0  0
 10 14  1  0  0  0
 11 15  2  0  0  0
 11 29  1  0  0  0
 12 30  1  0  0  0
 12 31  1  0  0  0
 12 32  1  0  0  0
 13 33  1  0  0  0
 13 34  1  0  0  0
 13 35  1  0  0  0
 14 16  2  0  0  0
 14 36  1  0  0  0
 15 16  1  0  0  0
 16 37  1  0  0  0
 17 18  1  0  0  0
 17 38  1  0  0  0
 17 39  1  0  0  0
 18 40  1  0  0  0
 18 41  1  0  0  0
 18 42  1  0  0  0
 27 44  1  0  0  0
 28 44  1  0  0  0
 44 45  1  0  0  0
M  CHG  1  44   1
M  END
> <LID>
L019837

> <PC_CID>
9839288

> <Names>


> <CAS_Numbers>


$$$$
44213245
                    3D
 Structure written by MMmdl.
 55 57  0  0  1  0            999 V2000
   -3.4390    3.6048    0.0036 Cl  0  0  0  0  0  0
   -4.9556    2.0776   -2.3499 Cl  0  0  0  0  0  0
    1.7461   -3.6384    0.9204 F   0  0  0  0  0  0
   -0.2146   -3.7180    1.8329 F   0  0  0  0  0  0
    0.0942   -4.5229   -0.1461 F   0  0  0  0  0  0
    4.5667    3.0352    1.2717 O   0  0  0  0  0  0
   -0.0802    0.1342    2.7750 O   0  0  0  0  0  0
    0.3751   -1.0135    0.8659 N   0  0  0  0  0  0
    4.5048    0.6255    1.4876 C   0  0  0  0  0  0
    4.2941    0.8428   -0.8846 C   0  0  0  0  0  0
    5.3124    1.8572    1.0354 C   0  0  1  0  0  0
    5.5079    1.6689   -0.4725 C   0  0  0  0  0  0
    2.8477   -0.8948    0.3213 C   0  0  0  0  0  0
    1.4970   -0.1289    0.4609 C   0  0  1  0  0  0
    1.0643    0.7185   -0.7385 C   0  0  0  0  0  0
    0.0961   -2.1917    0.0178 C   0  0  0  0  0  0
   -0.4415   -0.6393    1.8872 C   0  0  0  0  0  0
    1.2277    0.2728   -2.0714 C   0  0  0  0  0  0
    0.4403    1.9647   -0.5061 C   0  0  0  0  0  0
   -1.9225   -1.0610    1.8849 C   0  0  0  0  0  0
    0.4393   -3.5419    0.6862 C   0  0  0  0  0  0
    0.7826    1.0645   -3.1476 C   0  0  0  0  0  0
   -0.0076    2.7544   -1.5819 C   0  0  0  0  0  0
   -2.7055   -0.2677    0.8446 C   0  0  0  0  0  0
    0.1639    2.3048   -2.9039 C   0  0  0  0  0  0
   -2.7487    1.1433    0.9012 C   0  0  0  0  0  0
   -3.3924   -0.9373   -0.1901 C   0  0  0  0  0  0
   -3.4378    1.8794   -0.0821 C   0  0  0  0  0  0
   -4.0879   -0.2045   -1.1709 C   0  0  0  0  0  0
   -4.1080    1.2031   -1.1245 C   0  0  0  0  0  0
    5.1234   -0.0495    2.0800 H   0  0  0  0  0  0
    3.6585    0.9100    2.1126 H   0  0  0  0  0  0
    3.4563    1.5263   -0.9961 H   0  0  0  0  0  0
    4.4398    0.3125   -1.8261 H   0  0  0  0  0  0
    6.2672    1.9360    1.5569 H   0  0  0  0  0  0
    6.4176    1.0952   -0.6554 H   0  0  0  0  0  0
    5.5938    2.6077   -1.0217 H   0  0  0  0  0  0
    2.8357   -1.5634   -0.5386 H   0  0  0  0  0  0
    2.9704   -1.5352    1.1947 H   0  0  0  0  0  0
    1.6808    0.5988    1.2493 H   0  0  0  0  0  0
   -0.9436   -2.1958   -0.3018 H   0  0  0  0  0  0
    0.6518   -2.1317   -0.9149 H   0  0  0  0  0  0
    4.4968    3.1723    2.2047 H   0  0  0  0  0  0
    1.6956   -0.6752   -2.2870 H   0  0  0  0  0  0
    0.2911    2.3179    0.5041 H   0  0  0  0  0  0
   -2.0422   -2.1311    1.7266 H   0  0  0  0  0  0
   -2.3533   -0.8564    2.8660 H   0  0  0  0  0  0
    0.9125    0.7178   -4.1623 H   0  0  0  0  0  0
   -0.4876    3.7032   -1.3918 H   0  0  0  0  0  0
   -0.1811    2.9094   -3.7298 H   0  0  0  0  0  0
   -2.2355    1.6695    1.6931 H   0  0  0  0  0  0
   -3.3815   -2.0162   -0.2434 H   0  0  0  0  0  0
   -4.6034   -0.7252   -1.9645 H   0  0  0  0  0  0
    4.0945   -0.0798    0.2503 N   0  3  2  0  0  0
    4.8262   -0.7641    0.1204 H   0  0  0  0  0  0
  1 28  1  0  0  0
  2 30  1  0  0  0
  3 21  1  0  0  0
  4 21  1  0  0  0
  5 21  1  0  0  0
  6 11  1  0  0  0
  6 43  1  0  0  0
  7 17  2  0  0  0
  8 14  1  0  0  0
  8 16  1  0  0  0
  8 17  1  0  0  0
  9 11  1  0  0  0
  9 31  1  0  0  0
  9 32  1  0  0  0
  9 54  1  0  0  0
 10 12  1  0  0  0
 10 33  1  0  0  0
 10 34  1  0  0  0
 10 54  1  0  0  0
 11 12  1  0  0  0
 11 35  1  0  0  0
 12 36  1  0  0  0
 12 37  1  0  0  0
 13 14  1  0  0  0
 13 38  1  0  0  0
 13 39  1  0  0  0
 13 54  1  0  0  0
 14 15  1  0  0  0
 14 40  1  0  0  0
 15 18  2  0  0  0
 15 19  1  0  0  0
 16 21  1  0  0  0
 16 41  1  0  0  0
 16 42  1  0  0  0
 17 20  1  0  0  0
 18 22  1  0  0  0
 18 44  1  0  0  0
 19 23  2  0  0  0
 19 45  1  0  0  0
 20 24  1  0  0  0
 20 46  1  0  0  0
 20 47  1  0  0  0
 22 25  2  0  0  0
 22 48  1  0  0  0
 23 25  1  0  0  0
 23 49  1  0  0  0
 24 26  2  0  0  0
 24 27  1  0  0  0
 25 50  1  0  0  0
 26 28  1  0  0  0
 26 51  1  0  0  0
 27 29  2  0  0  0
 27 52  1  0  0  0
 28 30  2  0  0  0
 29 30  1  0  0  0
 29 53  1  0  0  0
 54 55  1  0  0  0
M  CHG  1  54   1
M  END
> <LID>
L014570

> <PC_CID>
44213245

> <Names>


> <CAS_Numbers>


$$$$
19896744
                    3D
 Structure written by MMmdl.
 55 57  0  0  1  0            999 V2000
    5.8642   -2.6306    1.0671 Cl  0  0  0  0  0  0
    7.2836    0.2022    0.7044 Cl  0  0  0  0  0  0
   -1.8256    5.9115    0.2039 O   0  0  0  0  0  0
    0.9368    0.0569    1.2738 O   0  0  0  0  0  0
   -4.3693   -3.1954    1.5832 O   0  0  0  0  0  0
   -0.8335   -0.3838   -0.0641 N   0  0  0  0  0  0
   -3.0810   -2.1034    0.0498 N   0  0  0  0  0  0
   -3.5669   -4.3100   -0.2019 N   0  0  0  0  0  0
   -1.8207   -0.1781    1.0226 C   0  0  1  0  0  0
   -1.9203    1.2948    1.5004 C   0  0  0  0  0  0
   -3.2065   -0.7901    0.7003 C   0  0  0  0  0  0
   -1.3020    3.5946    0.7799 C   0  0  0  0  0  0
   -3.1670    2.5521   -0.2836 C   0  0  0  0  0  0
   -1.8469    4.5761   -0.2540 C   0  0  1  0  0  0
   -3.2707    4.0718   -0.4690 C   0  0  0  0  0  0
   -1.4188   -0.8178   -1.3427 C   0  0  0  0  0  0
   -2.2251   -2.1174   -1.1532 C   0  0  0  0  0  0
    0.5001   -0.2744    0.1699 C   0  0  0  0  0  0
   -3.7064   -3.2020    0.5452 C   0  0  0  0  0  0
    1.4940   -0.5613   -0.9728 C   0  0  0  0  0  0
    2.9449   -0.3762   -0.5517 C   0  0  0  0  0  0
   -4.1570   -5.6001    0.1224 C   0  0  0  0  0  0
    3.6670   -1.4559   -0.0006 C   0  0  0  0  0  0
    3.5771    0.8746   -0.7120 C   0  0  0  0  0  0
    5.0098   -1.2889    0.3925 C   0  0  0  0  0  0
    4.9190    1.0438   -0.3206 C   0  0  0  0  0  0
    5.6384   -0.0342    0.2320 C   0  0  0  0  0  0
   -1.4645   -0.7592    1.8763 H   0  0  0  0  0  0
   -2.7972    1.4522    2.1302 H   0  0  0  0  0  0
   -1.0665    1.4878    2.1514 H   0  0  0  0  0  0
   -3.8018   -0.8211    1.6141 H   0  0  0  0  0  0
   -3.7638   -0.1492    0.0180 H   0  0  0  0  0  0
   -1.6571    3.8671    1.7760 H   0  0  0  0  0  0
   -0.2119    3.5670    0.8041 H   0  0  0  0  0  0
   -3.1705    2.0427   -1.2472 H   0  0  0  0  0  0
   -4.0207    2.1854    0.2877 H   0  0  0  0  0  0
   -1.2797    4.4955   -1.1826 H   0  0  0  0  0  0
   -3.9325    4.4814    0.2962 H   0  0  0  0  0  0
   -3.6759    4.3542   -1.4413 H   0  0  0  0  0  0
   -0.6995   -0.9631   -2.1463 H   0  0  0  0  0  0
   -2.0775   -0.0270   -1.7015 H   0  0  0  0  0  0
   -2.8350   -2.3050   -2.0381 H   0  0  0  0  0  0
   -1.5123   -2.9407   -1.0761 H   0  0  0  0  0  0
   -0.9270    6.1887    0.3021 H   0  0  0  0  0  0
    1.3589   -1.5850   -1.3246 H   0  0  0  0  0  0
    1.2867    0.1030   -1.8127 H   0  0  0  0  0  0
   -3.0194   -4.2512   -1.0477 H   0  0  0  0  0  0
   -3.8927   -6.3331   -0.6397 H   0  0  0  0  0  0
   -3.7935   -5.9623    1.0849 H   0  0  0  0  0  0
   -5.2446   -5.5295    0.1655 H   0  0  0  0  0  0
    3.1894   -2.4165    0.1263 H   0  0  0  0  0  0
    3.0345    1.7087   -1.1325 H   0  0  0  0  0  0
    5.3973    2.0043   -0.4444 H   0  0  0  0  0  0
   -1.8746    2.2874    0.3967 N   0  3  2  0  0  0
   -1.2515    1.9168   -0.3065 H   0  0  0  0  0  0
  1 25  1  0  0  0
  2 27  1  0  0  0
  3 14  1  0  0  0
  3 44  1  0  0  0
  4 18  2  0  0  0
  5 19  2  0  0  0
  6  9  1  0  0  0
  6 16  1  0  0  0
  6 18  1  0  0  0
  7 11  1  0  0  0
  7 17  1  0  0  0
  7 19  1  0  0  0
  8 19  1  0  0  0
  8 22  1  0  0  0
  8 47  1  0  0  0
  9 10  1  0  0  0
  9 11  1  0  0  0
  9 28  1  0  0  0
 10 29  1  0  0  0
 10 30  1  0  0  0
 10 54  1  0  0  0
 11 31  1  0  0  0
 11 32  1  0  0  0
 12 14  1  0  0  0
 12 33  1  0  0  0
 12 34  1  0  0  0
 12 54  1  0  0  0
 13 15  1  0  0  0
 13 35  1  0  0  0
 13 36  1  0  0  0
 13 54  1  0  0  0
 14 15  1  0  0  0
 14 37  1  0  0  0
 15 38  1  0  0  0
 15 39  1  0  0  0
 16 17  1  0  0  0
 16 40  1  0  0  0
 16 41  1  0  0  0
 17 42  1  0  0  0
 17 43  1  0  0  0
 18 20  1  0  0  0
 20 21  1  0  0  0
 20 45  1  0  0  0
 20 46  1  0  0  0
 21 23  2  0  0  0
 21 24  1  0  0  0
 22 48  1  0  0  0
 22 49  1  0  0  0
 22 50  1  0  0  0
 23 25  1  0  0  0
 23 51  1  0  0  0
 24 26  2  0  0  0
 24 52  1  0  0  0
 25 27  2  0  0  0
 26 27  1  0  0  0
 26 53  1  0  0  0
 54 55  1  0  0  0
M  CHG  1  54   1
M  END
> <LID>
L004344

> <PC_CID>
19896744

> <Names>


> <CAS_Numbers>


$$$$
19896745
                    3D
 Structure written by MMmdl.
 57 59  0  0  1  0            999 V2000
   -4.9696    3.1671    2.4351 Cl  0  0  0  0  0  0
   -7.2640    1.2151    1.3884 Cl  0  0  0  0  0  0
   -1.1979   -0.5577    0.5317 O   0  0  0  0  0  0
    5.2935    1.1293    0.0150 O   0  0  0  0  0  0
    0.5120    0.0293   -0.8288 N   0  0  0  0  0  0
    3.0716    1.1355   -0.4204 N   0  0  0  0  0  0
    4.1352    3.0538    0.2852 N   0  0  0  0  0  0
    1.4942   -0.8082   -0.1100 C   0  0  1  0  0  0
    1.3190   -2.3007   -0.4800 C   0  0  0  0  0  0
    2.9551   -0.3283   -0.3269 C   0  0  0  0  0  0
    2.2634   -4.5895   -0.2038 C   0  0  0  0  0  0
    1.9189   -3.2561    1.7495 C   0  0  0  0  0  0
    2.1383   -5.5116    1.0157 C   0  0  0  0  0  0
    2.4492   -4.6112    2.2056 C   0  0  0  0  0  0
    1.0871    0.8115   -1.9298 C   0  0  0  0  0  0
    2.1441    1.7800   -1.3716 C   0  0  0  0  0  0
   -0.7776    0.1149   -0.4126 C   0  0  0  0  0  0
    4.2237    1.7400   -0.0354 C   0  0  0  0  0  0
   -1.7386    1.0796   -1.1347 C   0  0  0  0  0  0
   -3.1211    1.1185   -0.4993 C   0  0  0  0  0  0
    5.3302    3.8966    0.2571 C   0  0  0  0  0  0
    3.0362    3.6221    1.0733 C   0  0  0  0  0  0
   -3.3932    2.0180    0.5532 C   0  0  0  0  0  0
   -4.1394    0.2581   -0.9605 C   0  0  0  0  0  0
   -4.6710    2.0565    1.1457 C   0  0  0  0  0  0
   -5.4173    0.2952   -0.3705 C   0  0  0  0  0  0
   -5.6872    1.1918    0.6822 C   0  0  0  0  0  0
    1.2960   -0.6812    0.9561 H   0  0  0  0  0  0
    0.2861   -2.6224   -0.3400 H   0  0  0  0  0  0
    1.5375   -2.4288   -1.5414 H   0  0  0  0  0  0
    3.5752   -0.7186    0.4827 H   0  0  0  0  0  0
    3.3603   -0.7509   -1.2482 H   0  0  0  0  0  0
    3.2191   -4.7380   -0.7077 H   0  0  0  0  0  0
    1.4741   -4.8017   -0.9268 H   0  0  0  0  0  0
    2.3788   -2.4278    2.2894 H   0  0  0  0  0  0
    0.8411   -3.2110    1.9164 H   0  0  0  0  0  0
    2.7975   -6.3785    0.9593 H   0  0  0  0  0  0
    1.1138   -5.8782    1.0944 H   0  0  0  0  0  0
    3.5277   -4.5574    2.3612 H   0  0  0  0  0  0
    1.9904   -4.9571    3.1325 H   0  0  0  0  0  0
    0.3600    1.3648   -2.5214 H   0  0  0  0  0  0
    1.5512    0.1202   -2.6350 H   0  0  0  0  0  0
    1.6145    2.5929   -0.8775 H   0  0  0  0  0  0
    2.7033    2.2260   -2.1959 H   0  0  0  0  0  0
   -1.3219    2.0876   -1.1226 H   0  0  0  0  0  0
   -1.8376    0.7801   -2.1788 H   0  0  0  0  0  0
    5.0652    4.9547    0.2501 H   0  0  0  0  0  0
    5.9525    3.7082    1.1330 H   0  0  0  0  0  0
    5.9288    3.7067   -0.6354 H   0  0  0  0  0  0
    2.3416    2.8669    1.4447 H   0  0  0  0  0  0
    2.4744    4.3385    0.4734 H   0  0  0  0  0  0
    3.4220    4.1511    1.9459 H   0  0  0  0  0  0
   -2.6181    2.6794    0.9122 H   0  0  0  0  0  0
   -3.9426   -0.4351   -1.7653 H   0  0  0  0  0  0
   -6.1923   -0.3674   -0.7268 H   0  0  0  0  0  0
    2.2081   -3.1957    0.2999 N   0  3  0  0  0  0
    3.1479   -2.8361    0.2107 H   0  0  0  0  0  0
  1 25  1  0  0  0
  2 27  1  0  0  0
  3 17  2  0  0  0
  4 18  2  0  0  0
  5  8  1  0  0  0
  5 15  1  0  0  0
  5 17  1  0  0  0
  6 10  1  0  0  0
  6 16  1  0  0  0
  6 18  1  0  0  0
  7 18  1  0  0  0
  7 21  1  0  0  0
  7 22  1  0  0  0
  8  9  1  0  0  0
  8 10  1  0  0  0
  8 28  1  0  0  0
  9 29  1  0  0  0
  9 30  1  0  0  0
  9 56  1  0  0  0
 10 31  1  0  0  0
 10 32  1  0  0  0
 11 13  1  0  0  0
 11 33  1  0  0  0
 11 34  1  0  0  0
 11 56  1  0  0  0
 12 14  1  0  0  0
 12 35  1  0  0  0
 12 36  1  0  0  0
 12 56  1  0  0  0
 13 14  1  0  0  0
 13 37  1  0  0  0
 13 38  1  0  0  0
 14 39  1  0  0  0
 14 40  1  0  0  0
 15 16  1  0  0  0
 15 41  1  0  0  0
 15 42  1  0  0  0
 16 43  1  0  0  0
 16 44  1  0  0  0
 17 19  1  0  0  0
 19 20  1  0  0  0
 19 45  1  0  0  0
 19 46  1  0  0  0
 20 23  2  0  0  0
 20 24  1  0  0  0
 21 47  1  0  0  0
 21 48  1  0  0  0
 21 49  1  0  0  0
 22 50  1  0  0  0
 22 51  1  0  0  0
 22 52  1  0  0  0
 23 25  1  0  0  0
 23 53  1  0  0  0
 24 26  2  0  0  0
 24 54  1  0  0  0
 25 27  2  0  0  0
 26 27  1  0  0  0
 26 55  1  0  0  0
 56 57  1  0  0  0
M  CHG  1  56   1
M  END
> <LID>
L004347

> <PC_CID>
19896745

> <Names>


> <CAS_Numbers>


$$$$
15730152
                    3D
 Structure written by MMmdl.
 46 48  0  0  1  0            999 V2000
   -5.3698   -1.3559    1.9813 Cl  0  0  0  0  0  0
   -6.5697   -1.7155   -0.9515 Cl  0  0  0  0  0  0
    3.1138    2.7428   -1.0360 O   0  0  0  0  0  0
   -0.3630   -0.4141   -0.4099 O   0  0  0  0  0  0
    0.9218    1.3912    0.1296 N   0  0  0  0  0  0
    2.2730    0.7732    0.1069 C   0  0  1  0  0  0
    2.3469   -0.7758    0.1919 C   0  0  0  0  0  0
    3.8643   -2.7515    0.1615 C   0  0  0  0  0  0
    4.3866   -0.9438    1.6341 C   0  0  0  0  0  0
    4.7506   -3.2739    1.2992 C   0  0  0  0  0  0
    5.4368   -2.0287    1.8481 C   0  0  0  0  0  0
    3.0140    1.3267   -1.1311 C   0  0  0  0  0  0
    1.0676    2.8517    0.2586 C   0  0  0  0  0  0
    1.8470    3.3850   -0.9563 C   0  0  0  0  0  0
   -0.2687    0.7817   -0.1337 C   0  0  0  0  0  0
   -1.5648    1.6171   -0.0756 C   0  0  0  0  0  0
   -2.8197    0.7816   -0.2888 C   0  0  0  0  0  0
   -3.4566    0.1647    0.8089 C   0  0  0  0  0  0
   -3.3549    0.6214   -1.5841 C   0  0  0  0  0  0
   -4.6170   -0.6109    0.6161 C   0  0  0  0  0  0
   -4.5148   -0.1526   -1.7792 C   0  0  0  0  0  0
   -5.1484   -0.7704   -0.6829 C   0  0  0  0  0  0
    2.7848    1.1485    0.9939 H   0  0  0  0  0  0
    1.7366   -1.1490    1.0161 H   0  0  0  0  0  0
    1.9540   -1.2088   -0.7290 H   0  0  0  0  0  0
    2.8988   -3.2600    0.1653 H   0  0  0  0  0  0
    4.3278   -2.9341   -0.8086 H   0  0  0  0  0  0
    4.8235    0.0551    1.6123 H   0  0  0  0  0  0
    3.6575   -0.9770    2.4456 H   0  0  0  0  0  0
    4.1262   -3.7179    2.0759 H   0  0  0  0  0  0
    5.4588   -4.0342    0.9680 H   0  0  0  0  0  0
    6.3294   -1.8056    1.2618 H   0  0  0  0  0  0
    5.7347   -2.1320    2.8920 H   0  0  0  0  0  0
    2.5037    1.0444   -2.0536 H   0  0  0  0  0  0
    4.0260    0.9271   -1.1922 H   0  0  0  0  0  0
    1.6145    3.0791    1.1748 H   0  0  0  0  0  0
    0.1331    3.4007    0.3509 H   0  0  0  0  0  0
    2.0028    4.4599   -0.8634 H   0  0  0  0  0  0
    1.2871    3.2216   -1.8786 H   0  0  0  0  0  0
   -1.6398    2.1098    0.8947 H   0  0  0  0  0  0
   -1.5307    2.3965   -0.8380 H   0  0  0  0  0  0
   -3.0523    0.2823    1.8037 H   0  0  0  0  0  0
   -2.8755    1.0883   -2.4322 H   0  0  0  0  0  0
   -4.9186   -0.2730   -2.7737 H   0  0  0  0  0  0
    3.7316   -1.2864    0.3524 N   0  3  0  0  0  0
    4.2926   -0.8667   -0.3753 H   0  0  0  0  0  0
  1 20  1  0  0  0
  2 22  1  0  0  0
  3 12  1  0  0  0
  3 14  1  0  0  0
  4 15  2  0  0  0
  5  6  1  0  0  0
  5 13  1  0  0  0
  5 15  1  0  0  0
  6  7  1  0  0  0
  6 12  1  0  0  0
  6 23  1  0  0  0
  7 24  1  0  0  0
  7 25  1  0  0  0
  7 45  1  0  0  0
  8 10  1  0  0  0
  8 26  1  0  0  0
  8 27  1  0  0  0
  8 45  1  0  0  0
  9 11  1  0  0  0
  9 28  1  0  0  0
  9 29  1  0  0  0
  9 45  1  0  0  0
 10 11  1  0  0  0
 10 30  1  0  0  0
 10 31  1  0  0  0
 11 32  1  0  0  0
 11 33  1  0  0  0
 12 34  1  0  0  0
 12 35  1  0  0  0
 13 14  1  0  0  0
 13 36  1  0  0  0
 13 37  1  0  0  0
 14 38  1  0  0  0
 14 39  1  0  0  0
 15 16  1  0  0  0
 16 17  1  0  0  0
 16 40  1  0  0  0
 16 41  1  0  0  0
 17 18  2  0  0  0
 17 19  1  0  0  0
 18 20  1  0  0  0
 18 42  1  0  0  0
 19 21  2  0  0  0
 19 43  1  0  0  0
 20 22  2  0  0  0
 21 22  1  0  0  0
 21 44  1  0  0  0
 45 46  1  0  0  0
M  CHG  1  45   1
M  END
> <LID>
L003494

> <PC_CID>
15730152

> <Names>


> <CAS_Numbers>


$$$$
10188427
                    3D
 Structure written by MMmdl.
 62 64  0  0  1  0            999 V2000
    5.6286   -2.5725    1.2259 S   0  0  0  0  0  0
   -8.0265   -2.2999    0.4972 F   0  0  0  0  0  0
   -7.7274   -1.1842   -1.3367 F   0  0  0  0  0  0
   -6.9297   -3.1834   -1.1502 F   0  0  0  0  0  0
   -1.3615    0.1537   -0.4402 O   0  0  0  0  0  0
    6.5586   -2.1337    0.1744 O   0  0  0  0  0  0
    6.0868   -2.7391    2.6129 O   0  0  0  0  0  0
   -0.1254    1.3093    1.0712 N   0  0  0  0  0  0
    4.3562   -1.3917    1.2970 N   0  0  0  0  0  0
    1.4662    4.1591   -1.9577 C   0  0  0  0  0  0
    3.1788    4.7952   -0.4213 C   0  0  0  0  0  0
    1.4576    3.1740    0.3493 C   0  0  0  0  0  0
    2.0854    5.4835   -2.4238 C   0  0  0  0  0  0
    3.4397    5.5415   -1.7251 C   0  0  0  0  0  0
    0.8164    1.7971    0.0317 C   0  0  1  0  0  0
    1.8700    0.7530   -0.3378 C   0  0  0  0  0  0
   -1.1886    0.5386    0.7185 C   0  0  0  0  0  0
    0.1202    1.6842    2.4734 C   0  0  0  0  0  0
    2.6576    0.1272    0.6542 C   0  0  0  0  0  0
    2.0693    0.4099   -1.6921 C   0  0  0  0  0  0
   -2.2189    0.1431    1.7968 C   0  0  0  0  0  0
    3.6349   -0.8288    0.3073 C   0  0  0  0  0  0
    3.0422   -0.5418   -2.0474 C   0  0  0  0  0  0
    3.8236   -1.1592   -1.0532 C   0  0  0  0  0  0
   -3.4998   -0.4253    1.2028 C   0  0  0  0  0  0
   -4.5521    0.4364    0.8287 C   0  0  0  0  0  0
   -3.6461   -1.8174    1.0286 C   0  0  0  0  0  0
   -5.7375   -0.0894    0.2795 C   0  0  0  0  0  0
   -4.8319   -2.3422    0.4792 C   0  0  0  0  0  0
   -5.8832   -1.4816    0.0955 C   0  0  0  0  0  0
    4.7557   -4.1014    0.6940 C   0  0  0  0  0  0
   -7.1678   -2.0494   -0.4902 C   0  0  0  0  0  0
    1.5297    3.4017   -2.7396 H   0  0  0  0  0  0
    0.4109    4.2971   -1.7177 H   0  0  0  0  0  0
    2.6966    5.4649    0.2932 H   0  0  0  0  0  0
    4.0930    4.4144    0.0351 H   0  0  0  0  0  0
    2.1417    3.0841    1.1927 H   0  0  0  0  0  0
    0.6965    3.9025    0.6338 H   0  0  0  0  0  0
    1.4656    6.3159   -2.0875 H   0  0  0  0  0  0
    2.1696    5.5507   -3.5090 H   0  0  0  0  0  0
    4.1874    5.0104   -2.3161 H   0  0  0  0  0  0
    3.7942    6.5607   -1.5681 H   0  0  0  0  0  0
    0.2227    1.9749   -0.8668 H   0  0  0  0  0  0
   -0.1377    0.8855    3.1689 H   0  0  0  0  0  0
    1.1648    1.9031    2.6810 H   0  0  0  0  0  0
   -0.4657    2.5657    2.7358 H   0  0  0  0  0  0
    2.5166    0.3816    1.6935 H   0  0  0  0  0  0
    1.4748    0.8715   -2.4669 H   0  0  0  0  0  0
   -1.7764   -0.5976    2.4638 H   0  0  0  0  0  0
   -2.4794    1.0108    2.4043 H   0  0  0  0  0  0
    3.1896   -0.8005   -3.0857 H   0  0  0  0  0  0
    4.5631   -1.8837   -1.3565 H   0  0  0  0  0  0
    4.1363   -1.0615    2.2251 H   0  0  0  0  0  0
   -4.4525    1.5040    0.9606 H   0  0  0  0  0  0
   -2.8479   -2.4872    1.3136 H   0  0  0  0  0  0
   -6.5363    0.5820    0.0008 H   0  0  0  0  0  0
   -4.9310   -3.4104    0.3545 H   0  0  0  0  0  0
    4.3111   -3.9568   -0.2893 H   0  0  0  0  0  0
    5.4691   -4.9237    0.6482 H   0  0  0  0  0  0
    3.9741   -4.3422    1.4140 H   0  0  0  0  0  0
    2.2539    3.7026   -0.7857 N   0  3  0  0  0  0
    2.8385    2.9464   -1.1142 H   0  0  0  0  0  0
  1  6  2  0  0  0
  1  7  2  0  0  0
  1  9  1  0  0  0
  1 31  1  0  0  0
  2 32  1  0  0  0
  3 32  1  0  0  0
  4 32  1  0  0  0
  5 17  2  0  0  0
  8 15  1  0  0  0
  8 17  1  0  0  0
  8 18  1  0  0  0
  9 22  1  0  0  0
  9 53  1  0  0  0
 10 13  1  0  0  0
 10 33  1  0  0  0
 10 34  1  0  0  0
 10 61  1  0  0  0
 11 14  1  0  0  0
 11 35  1  0  0  0
 11 36  1  0  0  0
 11 61  1  0  0  0
 12 15  1  0  0  0
 12 37  1  0  0  0
 12 38  1  0  0  0
 12 61  1  0  0  0
 13 14  1  0  0  0
 13 39  1  0  0  0
 13 40  1  0  0  0
 14 41  1  0  0  0
 14 42  1  0  0  0
 15 16  1  0  0  0
 15 43  1  0  0  0
 16 19  2  0  0  0
 16 20  1  0  0  0
 17 21  1  0  0  0
 18 44  1  0  0  0
 18 45  1  0  0  0
 18 46  1  0  0  0
 19 22  1  0  0  0
 19 47  1  0  0  0
 20 23  2  0  0  0
 20 48  1  0  0  0
 21 25  1  0  0  0
 21 49  1  0  0  0
 21 50  1  0  0  0
 22 24  2  0  0  0
 23 24  1  0  0  0
 23 51  1  0  0  0
 24 52  1  0  0  0
 25 26  2  0  0  0
 25 27  1  0  0  0
 26 28  1  0  0  0
 26 54  1  0  0  0
 27 29  2  0  0  0
 27 55  1  0  0  0
 28 30  2  0  0  0
 28 56  1  0  0  0
 29 30  1  0  0  0
 29 57  1  0  0  0
 30 32  1  0  0  0
 31 58  1  0  0  0
 31 59  1  0  0  0
 31 60  1  0  0  0
 61 62  1  0  0  0
M  CHG  1  61   1
M  END
> <LID>
L023515

> <PC_CID>
10188427

> <Names>


> <CAS_Numbers>
261523-46-0;792894-31-6

$$$$
18915174
                    3D
 Structure written by MMmdl.
 56 59  0  0  1  0            999 V2000
    3.3502   -3.3483   -1.8789 Cl  0  0  0  0  0  0
    5.5771   -1.7374   -3.4983 Cl  0  0  0  0  0  0
   -0.9092   -2.3241    2.4905 S   0  0  0  0  0  0
    0.0613    0.8331   -1.0352 O   0  0  0  0  0  0
   -0.4320    0.4446    1.1529 N   0  0  0  0  0  0
   -1.7670   -0.1801    0.9587 C   0  0  1  0  0  0
   -2.5993    0.3907   -0.2280 C   0  0  0  0  0  0
    1.9011    1.1382    0.4358 C   0  0  2  0  0  0
   -4.7559    1.0262   -1.2058 C   0  0  0  0  0  0
   -4.6667   -0.9926    0.2052 C   0  0  0  0  0  0
   -1.4887   -1.7025    0.8807 C   0  0  0  0  0  0
    0.4162    0.8005    0.1437 C   0  0  0  0  0  0
    2.0753    2.6734    0.4796 C   0  0  0  0  0  0
   -0.0075    0.3080    2.5564 C   0  0  0  0  0  0
   -6.2727    1.1428   -0.9889 C   0  0  0  0  0  0
   -6.1891   -0.9213    0.4213 C   0  0  0  0  0  0
   -6.8933   -0.2376   -0.7547 C   0  0  0  0  0  0
    2.8292    0.4323   -0.5675 C   0  0  0  0  0  0
    3.5288    3.1089    0.2900 C   0  0  0  0  0  0
    4.0573    2.6257   -1.0625 C   0  0  0  0  0  0
    0.4383   -1.1433    2.8173 C   0  0  0  0  0  0
    3.8414    1.1366   -1.2703 C   0  0  0  0  0  0
    2.7106   -0.9644   -0.7627 C   0  0  0  0  0  0
    4.6773    0.4515   -2.1766 C   0  0  0  0  0  0
    3.5482   -1.6453   -1.6658 C   0  0  0  0  0  0
    4.5334   -0.9334   -2.3803 C   0  0  0  0  0  0
   -2.3700    0.0139    1.8470 H   0  0  0  0  0  0
   -2.3454    1.4443   -0.3544 H   0  0  0  0  0  0
   -2.3286   -0.1141   -1.1569 H   0  0  0  0  0  0
    2.2371    0.7312    1.3860 H   0  0  0  0  0  0
   -4.5533    0.4744   -2.1254 H   0  0  0  0  0  0
   -4.3403    2.0256   -1.3415 H   0  0  0  0  0  0
   -4.2401   -1.4064    1.1168 H   0  0  0  0  0  0
   -4.4294   -1.6712   -0.6156 H   0  0  0  0  0  0
   -2.3584   -2.2853    0.5910 H   0  0  0  0  0  0
   -0.7302   -1.9170    0.1264 H   0  0  0  0  0  0
    1.4839    3.1432   -0.3087 H   0  0  0  0  0  0
    1.6859    3.0638    1.4206 H   0  0  0  0  0  0
   -0.8292    0.5577    3.2288 H   0  0  0  0  0  0
    0.7656    1.0213    2.8375 H   0  0  0  0  0  0
   -6.4758    1.7901   -0.1346 H   0  0  0  0  0  0
   -6.7373    1.6172   -1.8540 H   0  0  0  0  0  0
   -6.5914   -1.9249    0.5628 H   0  0  0  0  0  0
   -6.4017   -0.3734    1.3405 H   0  0  0  0  0  0
   -6.7949   -0.8480   -1.6534 H   0  0  0  0  0  0
   -7.9610   -0.1437   -0.5538 H   0  0  0  0  0  0
    4.1395    2.6968    1.0944 H   0  0  0  0  0  0
    3.6129    4.1939    0.3581 H   0  0  0  0  0  0
    5.1195    2.8591   -1.1459 H   0  0  0  0  0  0
    3.5541    3.1582   -1.8704 H   0  0  0  0  0  0
    0.7648   -1.2615    3.8506 H   0  0  0  0  0  0
    1.2889   -1.4011    2.1860 H   0  0  0  0  0  0
    1.9649   -1.5263   -0.2196 H   0  0  0  0  0  0
    5.4413    0.9909   -2.7175 H   0  0  0  0  0  0
   -4.0819    0.3495   -0.0638 N   0  3  0  0  0  0
   -4.2878    0.9086    0.7520 H   0  0  0  0  0  0
  1 25  1  0  0  0
  2 26  1  0  0  0
  3 11  1  0  0  0
  3 21  1  0  0  0
  4 12  2  0  0  0
  5  6  1  0  0  0
  5 12  1  0  0  0
  5 14  1  0  0  0
  6  7  1  0  0  0
  6 11  1  0  0  0
  6 27  1  0  0  0
  7 28  1  0  0  0
  7 29  1  0  0  0
  7 55  1  0  0  0
  8 12  1  0  0  0
  8 13  1  0  0  0
  8 18  1  0  0  0
  8 30  1  0  0  0
  9 15  1  0  0  0
  9 31  1  0  0  0
  9 32  1  0  0  0
  9 55  1  0  0  0
 10 16  1  0  0  0
 10 33  1  0  0  0
 10 34  1  0  0  0
 10 55  1  0  0  0
 11 35  1  0  0  0
 11 36  1  0  0  0
 13 19  1  0  0  0
 13 37  1  0  0  0
 13 38  1  0  0  0
 14 21  1  0  0  0
 14 39  1  0  0  0
 14 40  1  0  0  0
 15 17  1  0  0  0
 15 41  1  0  0  0
 15 42  1  0  0  0
 16 17  1  0  0  0
 16 43  1  0  0  0
 16 44  1  0  0  0
 17 45  1  0  0  0
 17 46  1  0  0  0
 18 22  1  0  0  0
 18 23  2  0  0  0
 19 20  1  0  0  0
 19 47  1  0  0  0
 19 48  1  0  0  0
 20 22  1  0  0  0
 20 49  1  0  0  0
 20 50  1  0  0  0
 21 51  1  0  0  0
 21 52  1  0  0  0
 22 24  2  0  0  0
 23 25  1  0  0  0
 23 53  1  0  0  0
 24 26  1  0  0  0
 24 54  1  0  0  0
 25 26  2  0  0  0
 55 56  1  0  0  0
M  CHG  1  55   1
M  END
> <LID>
L004487

> <PC_CID>
18915174

> <Names>


> <CAS_Numbers>


$$$$
14536617
                    3D
 Structure written by MMmdl.
 67 70  0  0  1  0            999 V2000
   -2.9559    1.9605    1.7583 S   0  0  0  0  0  0
    3.4428    3.5509    0.1449 O   0  0  0  0  0  0
   -1.6053    0.3677   -0.3979 N   0  0  0  0  0  0
    3.4647    1.3585   -0.4342 N   0  0  0  0  0  0
   -2.0765   -2.0406    0.1366 C   0  0  0  0  0  0
   -0.5274   -3.5567    1.3496 C   0  0  0  0  0  0
   -2.5504   -4.4584    0.2805 C   0  0  0  0  0  0
   -1.1033   -1.0185   -0.5022 C   0  0  1  0  0  0
    0.1350   -4.9446    1.3263 C   0  0  0  0  0  0
   -1.9320   -5.8660    0.2361 C   0  0  0  0  0  0
   -0.9190   -6.0582    1.3718 C   0  0  0  0  0  0
   -0.6769   -1.4170   -1.9302 C   0  0  0  0  0  0
   -0.7785    1.2665    0.1962 C   0  0  0  0  0  0
   -2.9003    0.6653   -0.6922 C   0  0  0  0  0  0
   -1.2626    2.0652    1.2602 C   0  0  0  0  0  0
   -3.6843    1.3653    0.2608 C   0  0  0  0  0  0
    0.5719    1.4048   -0.2030 C   0  0  0  0  0  0
   -3.5034    0.2906   -1.9163 C   0  0  0  0  0  0
    1.4375    2.3066    0.4595 C   0  0  0  0  0  0
   -0.4084    2.9665    1.9221 C   0  0  0  0  0  0
   -5.0466    1.6286    0.0181 C   0  0  0  0  0  0
    0.9344    3.0896    1.5209 C   0  0  0  0  0  0
   -4.8627    0.5641   -2.1623 C   0  0  0  0  0  0
   -5.6384    1.2228   -1.1915 C   0  0  0  0  0  0
    2.8661    2.4699    0.0240 C   0  0  0  0  0  0
    5.8113    1.0822    0.3124 C   0  0  0  0  0  0
    7.3013    1.0361   -0.0836 C   0  0  0  0  0  0
    4.8518    1.2756   -0.8764 C   0  0  0  0  0  0
    8.1968    1.1113    1.1626 C   0  0  0  0  0  0
    7.6510   -0.2073   -0.9186 C   0  0  0  0  0  0
   -2.9855   -2.0813   -0.4646 H   0  0  0  0  0  0
   -2.3847   -1.7092    1.1299 H   0  0  0  0  0  0
    0.2505   -2.7970    1.2852 H   0  0  0  0  0  0
   -1.0377   -3.4026    2.3019 H   0  0  0  0  0  0
   -3.1488   -4.3372    1.1851 H   0  0  0  0  0  0
   -3.2286   -4.3430   -0.5661 H   0  0  0  0  0  0
   -0.1935   -1.0541    0.0961 H   0  0  0  0  0  0
    0.8186   -5.0456    2.1699 H   0  0  0  0  0  0
    0.7402   -5.0478    0.4245 H   0  0  0  0  0  0
   -1.4397   -6.0208   -0.7250 H   0  0  0  0  0  0
   -2.7165   -6.6203    0.3059 H   0  0  0  0  0  0
   -0.4409   -7.0349    1.2908 H   0  0  0  0  0  0
   -1.4340   -6.0407    2.3333 H   0  0  0  0  0  0
   -0.1735   -0.6008   -2.4481 H   0  0  0  0  0  0
    0.0197   -2.2550   -1.8996 H   0  0  0  0  0  0
   -1.5167   -1.7400   -2.5425 H   0  0  0  0  0  0
    0.9447    0.8158   -1.0273 H   0  0  0  0  0  0
   -2.9385   -0.1970   -2.6917 H   0  0  0  0  0  0
   -0.7842    3.5745    2.7321 H   0  0  0  0  0  0
   -5.6362    2.1571    0.7530 H   0  0  0  0  0  0
    1.5757    3.7921    2.0341 H   0  0  0  0  0  0
   -5.3105    0.2693   -3.1000 H   0  0  0  0  0  0
   -6.6811    1.4317   -1.3811 H   0  0  0  0  0  0
    5.6630    1.9049    1.0135 H   0  0  0  0  0  0
    5.5471    0.1739    0.8557 H   0  0  0  0  0  0
    7.5174    1.9177   -0.6887 H   0  0  0  0  0  0
    4.9252    0.4358   -1.5666 H   0  0  0  0  0  0
    5.1191    2.1689   -1.4437 H   0  0  0  0  0  0
    2.9213    0.5089   -0.4710 H   0  0  0  0  0  0
    9.2523    1.1216    0.8893 H   0  0  0  0  0  0
    7.9999    2.0175    1.7363 H   0  0  0  0  0  0
    8.0320    0.2580    1.8214 H   0  0  0  0  0  0
    8.7141   -0.2290   -1.1604 H   0  0  0  0  0  0
    7.4158   -1.1258   -0.3800 H   0  0  0  0  0  0
    7.1092   -0.2252   -1.8637 H   0  0  0  0  0  0
   -1.5005   -3.4067    0.2335 N   0  3  0  0  0  0
   -0.9915   -3.5608   -0.6252 H   0  0  0  0  0  0
  1 15  1  0  0  0
  1 16  1  0  0  0
  2 25  2  0  0  0
  3  8  1  0  0  0
  3 13  1  0  0  0
  3 14  1  0  0  0
  4 25  1  0  0  0
  4 28  1  0  0  0
  4 59  1  0  0  0
  5  8  1  0  0  0
  5 31  1  0  0  0
  5 32  1  0  0  0
  5 66  1  0  0  0
  6  9  1  0  0  0
  6 33  1  0  0  0
  6 34  1  0  0  0
  6 66  1  0  0  0
  7 10  1  0  0  0
  7 35  1  0  0  0
  7 36  1  0  0  0
  7 66  1  0  0  0
  8 12  1  0  0  0
  8 37  1  0  0  0
  9 11  1  0  0  0
  9 38  1  0  0  0
  9 39  1  0  0  0
 10 11  1  0  0  0
 10 40  1  0  0  0
 10 41  1  0  0  0
 11 42  1  0  0  0
 11 43  1  0  0  0
 12 44  1  0  0  0
 12 45  1  0  0  0
 12 46  1  0  0  0
 13 15  2  0  0  0
 13 17  1  0  0  0
 14 16  1  0  0  0
 14 18  2  0  0  0
 15 20  1  0  0  0
 16 21  2  0  0  0
 17 19  2  0  0  0
 17 47  1  0  0  0
 18 23  1  0  0  0
 18 48  1  0  0  0
 19 22  1  0  0  0
 19 25  1  0  0  0
 20 22  2  0  0  0
 20 49  1  0  0  0
 21 24  1  0  0  0
 21 50  1  0  0  0
 22 51  1  0  0  0
 23 24  2  0  0  0
 23 52  1  0  0  0
 24 53  1  0  0  0
 26 27  1  0  0  0
 26 28  1  0  0  0
 26 54  1  0  0  0
 26 55  1  0  0  0
 27 29  1  0  0  0
 27 30  1  0  0  0
 27 56  1  0  0  0
 28 57  1  0  0  0
 28 58  1  0  0  0
 29 60  1  0  0  0
 29 61  1  0  0  0
 29 62  1  0  0  0
 30 63  1  0  0  0
 30 64  1  0  0  0
 30 65  1  0  0  0
 66 67  1  0  0  0
M  CHG  1  66   1
M  END
> <LID>
L003537

> <PC_CID>
14536617

> <Names>


> <CAS_Numbers>


$$$$
5284570
                    3D
 Structure written by MMmdl.
 41 45  0  0  1  0            999 V2000
   -1.9248   -0.4532    1.2546 O   0  0  0  0  0  0
   -2.5608   -2.6318   -0.2880 O   0  0  0  0  0  0
   -3.6138    1.8976    0.5961 O   0  0  0  0  0  0
    0.3699   -0.6077    0.6625 C   0  0  1  0  0  0
    1.3843   -1.2363   -0.3098 C   0  0  2  0  0  0
    2.4047   -0.1287   -0.6706 C   0  0  1  0  0  0
   -0.9009   -1.4423    1.0150 C   0  0  2  0  0  0
    1.1430   -0.2366    1.9525 C   0  0  0  0  0  0
   -0.2598    0.6166    0.0741 C   0  0  0  0  0  0
    0.6983   -1.9034   -1.5148 C   0  0  0  0  0  0
    1.7255    1.1113   -1.3330 C   0  0  0  0  0  0
    2.3252    0.7150    1.6781 C   0  0  0  0  0  0
    0.3529    1.5274   -0.7986 C   0  0  0  0  0  0
   -0.3066   -2.9679   -1.0471 C   0  0  0  0  0  0
   -1.3711   -2.3636   -0.1298 C   0  0  0  0  0  0
   -1.5606    0.6550    0.5378 C   0  0  0  0  0  0
    4.3728    1.0510    0.3325 C   0  0  0  0  0  0
   -0.4321    2.6412   -1.1657 C   0  0  0  0  0  0
   -2.3242    1.7808    0.1687 C   0  0  0  0  0  0
   -1.7533    2.7752   -0.6662 C   0  0  0  0  0  0
    1.9152   -2.0369    0.2094 H   0  0  0  0  0  0
    3.1274   -0.5403   -1.3767 H   0  0  0  0  0  0
   -0.7404   -2.0562    1.9015 H   0  0  0  0  0  0
    1.5194   -1.1467    2.4217 H   0  0  0  0  0  0
    0.4738    0.2203    2.6831 H   0  0  0  0  0  0
    1.4481   -2.3693   -2.1548 H   0  0  0  0  0  0
    0.1867   -1.1647   -2.1330 H   0  0  0  0  0  0
    1.5698    0.8814   -2.3875 H   0  0  0  0  0  0
    2.3812    1.9805   -1.3318 H   0  0  0  0  0  0
    1.9647    1.7182    1.4477 H   0  0  0  0  0  0
    2.9302    0.8099    2.5805 H   0  0  0  0  0  0
    0.2075   -3.7644   -0.5087 H   0  0  0  0  0  0
   -0.7934   -3.4271   -1.9079 H   0  0  0  0  0  0
    4.9915    1.0779    1.2301 H   0  0  0  0  0  0
    4.9826    0.6435   -0.4746 H   0  0  0  0  0  0
    4.1105    2.0787    0.0820 H   0  0  0  0  0  0
   -0.0362    3.3814   -1.8453 H   0  0  0  0  0  0
   -2.3453    3.6308   -0.9567 H   0  0  0  0  0  0
   -3.8872    1.1614    1.1224 H   0  0  0  0  0  0
    3.1729    0.2144    0.5656 N   0  3  2  0  0  0
    3.5376   -0.6700    0.8902 H   0  0  0  0  0  0
  1  7  1  0  0  0
  1 16  1  0  0  0
  2 15  2  0  0  0
  3 19  1  0  0  0
  3 39  1  0  0  0
  4  5  1  0  0  0
  4  7  1  0  0  0
  4  8  1  0  0  0
  4  9  1  0  0  0
  5  6  1  0  0  0
  5 10  1  0  0  0
  5 21  1  0  0  0
  6 11  1  0  0  0
  6 22  1  0  0  0
  6 40  1  0  0  0
  7 15  1  0  0  0
  7 23  1  0  0  0
  8 12  1  0  0  0
  8 24  1  0  0  0
  8 25  1  0  0  0
  9 13  2  0  0  0
  9 16  1  0  0  0
 10 14  1  0  0  0
 10 26  1  0  0  0
 10 27  1  0  0  0
 11 13  1  0  0  0
 11 28  1  0  0  0
 11 29  1  0  0  0
 12 30  1  0  0  0
 12 31  1  0  0  0
 12 40  1  0  0  0
 13 18  1  0  0  0
 14 15  1  0  0  0
 14 32  1  0  0  0
 14 33  1  0  0  0
 16 19  2  0  0  0
 17 34  1  0  0  0
 17 35  1  0  0  0
 17 36  1  0  0  0
 17 40  1  0  0  0
 18 20  2  0  0  0
 18 37  1  0  0  0
 19 20  1  0  0  0
 20 38  1  0  0  0
 40 41  1  0  0  0
M  CHG  1  40   1
M  END
> <LID>
L000830

> <PC_CID>
5284570

> <Names>
Dihydromorphine;Hydromorphone

> <CAS_Numbers>
18145-12-5;41376-02-7;466-99-9

$$$$
44214374
                    3D
 Structure written by MMmdl.
 63 67  0  0  1  0            999 V2000
   10.6478    3.2358    3.3628 Cl  0  0  0  0  0  0
    7.0110   -0.7977    0.5580 O   0  0  0  0  0  0
    4.9416   -0.8124   -0.3795 N   0  0  0  0  0  0
    4.3119   -3.1777    0.3431 C   0  0  1  0  0  0
    4.9777   -2.2541   -0.7230 C   0  0  1  0  0  0
    4.4790   -4.6564   -0.1001 C   0  0  0  0  0  0
    4.4293   -2.5200   -2.1458 C   0  0  0  0  0  0
    3.9347   -4.9089   -1.5152 C   0  0  0  0  0  0
    4.6071   -3.9904   -2.5428 C   0  0  0  0  0  0
    5.0894   -4.0024    2.6462 C   0  0  0  0  0  0
    3.9697   -1.9575    2.4942 C   0  0  0  0  0  0
    3.1164   -2.8355    3.4201 C   0  0  0  0  0  0
    3.7787   -4.2159    3.4026 C   0  0  0  0  0  0
    5.9543    1.2977    0.3006 C   0  0  1  0  0  0
    6.0174   -0.1856    0.1642 C   0  0  0  0  0  0
    7.1099    2.0988   -0.2499 C   0  0  0  0  0  0
    6.0341    2.1641   -0.9529 C   0  0  0  0  0  0
    3.6720   -0.1150   -0.6336 C   0  0  0  0  0  0
    8.0519    3.0952    0.2837 C   0  0  0  0  0  0
    5.1798    3.2787   -1.3911 C   0  0  0  0  0  0
    8.8112    2.7463    1.4193 C   0  0  0  0  0  0
    8.2305    4.3615   -0.3156 C   0  0  0  0  0  0
    5.0472    4.4651   -0.6363 C   0  0  0  0  0  0
    4.4537    3.1282   -2.5901 C   0  0  0  0  0  0
    9.7283    3.6645    1.9673 C   0  0  0  0  0  0
    9.1481    5.2785    0.2330 C   0  0  0  0  0  0
    4.2078    5.5005   -1.0912 C   0  0  0  0  0  0
    3.6145    4.1645   -3.0436 C   0  0  0  0  0  0
    9.8945    4.9320    1.3758 C   0  0  0  0  0  0
    3.4935    5.3517   -2.2958 C   0  0  0  0  0  0
    3.2373   -2.9875    0.3462 H   0  0  0  0  0  0
    6.0236   -2.5627   -0.7790 H   0  0  0  0  0  0
    3.9518   -5.3242    0.5814 H   0  0  0  0  0  0
    5.5324   -4.9392   -0.0756 H   0  0  0  0  0  0
    4.9434   -1.8849   -2.8684 H   0  0  0  0  0  0
    3.3702   -2.2715   -2.2138 H   0  0  0  0  0  0
    4.0935   -5.9515   -1.7925 H   0  0  0  0  0  0
    2.8560   -4.7475   -1.5283 H   0  0  0  0  0  0
    4.1825   -4.1635   -3.5322 H   0  0  0  0  0  0
    5.6689   -4.2299   -2.6150 H   0  0  0  0  0  0
    5.4972   -4.9109    2.2069 H   0  0  0  0  0  0
    3.3613   -1.2952    1.8793 H   0  0  0  0  0  0
    4.6174   -1.3200    3.0977 H   0  0  0  0  0  0
    5.8440   -3.6623    3.3573 H   0  0  0  0  0  0
    3.1456   -4.9221    2.8641 H   0  0  0  0  0  0
    3.9416   -4.6153    4.4042 H   0  0  0  0  0  0
    2.0910   -2.9051    3.0551 H   0  0  0  0  0  0
    3.0793   -2.4178    4.4269 H   0  0  0  0  0  0
    5.4734    1.6658    1.2047 H   0  0  0  0  0  0
    2.8234   -0.7977   -0.5991 H   0  0  0  0  0  0
    3.6864    0.3518   -1.6186 H   0  0  0  0  0  0
    3.4597    0.6565    0.1075 H   0  0  0  0  0  0
    8.6877    1.7748    1.8761 H   0  0  0  0  0  0
    7.6820    4.6339   -1.2047 H   0  0  0  0  0  0
    5.5732    4.5844    0.2992 H   0  0  0  0  0  0
    4.5417    2.2201   -3.1688 H   0  0  0  0  0  0
    9.2831    6.2466   -0.2265 H   0  0  0  0  0  0
    4.1080    6.4074   -0.5131 H   0  0  0  0  0  0
    3.0633    4.0486   -3.9652 H   0  0  0  0  0  0
   10.5981    5.6367    1.7942 H   0  0  0  0  0  0
    2.8494    6.1460   -2.6435 H   0  0  0  0  0  0
    4.8396   -2.8737    1.7180 N   0  3  0  0  0  0
    5.7280   -2.4145    1.5665 H   0  0  0  0  0  0
  1 25  1  0  0  0
  2 15  2  0  0  0
  3  5  1  0  0  0
  3 15  1  0  0  0
  3 18  1  0  0  0
  4  5  1  0  0  0
  4  6  1  0  0  0
  4 31  1  0  0  0
  4 62  1  0  0  0
  5  7  1  0  0  0
  5 32  1  0  0  0
  6  8  1  0  0  0
  6 33  1  0  0  0
  6 34  1  0  0  0
  7  9  1  0  0  0
  7 35  1  0  0  0
  7 36  1  0  0  0
  8  9  1  0  0  0
  8 37  1  0  0  0
  8 38  1  0  0  0
  9 39  1  0  0  0
  9 40  1  0  0  0
 10 13  1  0  0  0
 10 41  1  0  0  0
 10 44  1  0  0  0
 10 62  1  0  0  0
 11 12  1  0  0  0
 11 42  1  0  0  0
 11 43  1  0  0  0
 11 62  1  0  0  0
 12 13  1  0  0  0
 12 47  1  0  0  0
 12 48  1  0  0  0
 13 45  1  0  0  0
 13 46  1  0  0  0
 14 15  1  0  0  0
 14 16  1  0  0  0
 14 17  1  0  0  0
 14 49  1  0  0  0
 16 17  2  0  0  0
 16 19  1  0  0  0
 17 20  1  0  0  0
 18 50  1  0  0  0
 18 51  1  0  0  0
 18 52  1  0  0  0
 19 21  2  0  0  0
 19 22  1  0  0  0
 20 23  2  0  0  0
 20 24  1  0  0  0
 21 25  1  0  0  0
 21 53  1  0  0  0
 22 26  2  0  0  0
 22 54  1  0  0  0
 23 27  1  0  0  0
 23 55  1  0  0  0
 24 28  2  0  0  0
 24 56  1  0  0  0
 25 29  2  0  0  0
 26 29  1  0  0  0
 26 57  1  0  0  0
 27 30  2  0  0  0
 27 58  1  0  0  0
 28 30  1  0  0  0
 28 59  1  0  0  0
 29 60  1  0  0  0
 30 61  1  0  0  0
 62 63  1  0  0  0
M  CHG  1  62   1
M  END
> <LID>
L017499

> <PC_CID>
44214374

> <Names>


> <CAS_Numbers>


$$$$
44214376
                    3D
 Structure written by MMmdl.
 69 73  0  0  1  0            999 V2000
    5.3297    0.2637    1.2877 O   0  0  0  0  0  0
    3.5377    2.0658   -0.6123 O   0  0  0  0  0  0
    4.0678    1.2509   -2.6845 O   0  0  0  0  0  0
    5.6357   -1.3230   -0.3017 N   0  0  0  0  0  0
    4.2148   -3.0964    0.8602 C   0  0  1  0  0  0
    5.6182   -2.4377    0.6780 C   0  0  1  0  0  0
    4.3132   -4.1892    1.9589 C   0  0  0  0  0  0
    6.7165   -3.4883    0.3835 C   0  0  0  0  0  0
    5.4127   -5.2220    1.6633 C   0  0  0  0  0  0
    5.6760    1.0705   -0.9097 C   0  0  2  0  0  0
    6.7793   -4.5486    1.4890 C   0  0  0  0  0  0
    2.0811   -2.3577    2.0810 C   0  0  0  0  0  0
    2.4307   -1.6450   -0.1152 C   0  0  0  0  0  0
    5.5383   -0.0275    0.1087 C   0  0  0  0  0  0
    1.1192   -2.4420   -0.1373 C   0  0  0  0  0  0
    0.9694   -3.0238    1.2711 C   0  0  0  0  0  0
    6.6828    2.1785   -0.6853 C   0  0  0  0  0  0
    6.9892    1.3618   -1.6349 C   0  0  0  0  0  0
    5.7352   -1.7337   -1.7115 C   0  0  0  0  0  0
    4.3467    1.4643   -1.5041 C   0  0  0  0  0  0
    7.4426    2.7371    0.4488 C   0  0  0  0  0  0
    8.1793    0.5240   -1.8706 C   0  0  0  0  0  0
    8.5221    0.2276   -3.2055 C   0  0  0  0  0  0
    6.7218    3.1702    1.5813 C   0  0  0  0  0  0
    8.9447   -0.0214   -0.8149 C   0  0  0  0  0  0
    8.8470    2.8871    0.4183 C   0  0  0  0  0  0
    7.3997    3.7180    2.6876 C   0  0  0  0  0  0
    9.6322   -0.5926   -3.4860 C   0  0  0  0  0  0
    9.5240    3.4359    1.5248 C   0  0  0  0  0  0
   10.0531   -0.8428   -1.0969 C   0  0  0  0  0  0
    2.2521    2.5023   -1.0177 C   0  0  0  0  0  0
    8.8015    3.8473    2.6612 C   0  0  0  0  0  0
   10.3988   -1.1263   -2.4321 C   0  0  0  0  0  0
    3.9541   -3.6215   -0.0603 H   0  0  0  0  0  0
    5.8952   -2.0386    1.6556 H   0  0  0  0  0  0
    3.3704   -4.7286    2.0503 H   0  0  0  0  0  0
    4.5153   -3.7300    2.9277 H   0  0  0  0  0  0
    7.6875   -2.9987    0.2950 H   0  0  0  0  0  0
    6.5349   -3.9928   -0.5657 H   0  0  0  0  0  0
    5.4615   -5.9525    2.4715 H   0  0  0  0  0  0
    5.1599   -5.7789    0.7600 H   0  0  0  0  0  0
    7.5352   -5.2961    1.2462 H   0  0  0  0  0  0
    7.0887   -4.0887    2.4285 H   0  0  0  0  0  0
    2.3714   -2.9131    2.9709 H   0  0  0  0  0  0
    1.7107   -1.3990    2.4478 H   0  0  0  0  0  0
    3.0020   -1.7658   -1.0350 H   0  0  0  0  0  0
    2.2034   -0.5820   -0.0236 H   0  0  0  0  0  0
    1.1220   -4.1034    1.2426 H   0  0  0  0  0  0
   -0.0174   -2.8404    1.6976 H   0  0  0  0  0  0
    1.1638   -3.2451   -0.8740 H   0  0  0  0  0  0
    0.2783   -1.7997   -0.4013 H   0  0  0  0  0  0
    6.7751   -1.9187   -1.9801 H   0  0  0  0  0  0
    5.1818   -2.6556   -1.8897 H   0  0  0  0  0  0
    5.3358   -1.0105   -2.4182 H   0  0  0  0  0  0
    5.6458    3.0751    1.6086 H   0  0  0  0  0  0
    7.9345    0.6283   -4.0189 H   0  0  0  0  0  0
    9.4147    2.6011   -0.4541 H   0  0  0  0  0  0
    8.6776    0.1668    0.2142 H   0  0  0  0  0  0
    6.8438    4.0401    3.5558 H   0  0  0  0  0  0
    9.8940   -0.8147   -4.5101 H   0  0  0  0  0  0
   10.5980    3.5472    1.4988 H   0  0  0  0  0  0
   10.6348   -1.2601   -0.2882 H   0  0  0  0  0  0
    1.6505    1.6642   -1.3716 H   0  0  0  0  0  0
    1.7343    2.9615   -0.1757 H   0  0  0  0  0  0
    2.3264    3.2416   -1.8162 H   0  0  0  0  0  0
   11.2486   -1.7571   -2.6479 H   0  0  0  0  0  0
    9.3215    4.2690    3.5088 H   0  0  0  0  0  0
    3.1594   -2.0541    1.1100 N   0  3  0  0  0  0
    3.6587   -1.2496    1.4660 H   0  0  0  0  0  0
  1 14  2  0  0  0
  2 20  1  0  0  0
  2 31  1  0  0  0
  3 20  2  0  0  0
  4  6  1  0  0  0
  4 14  1  0  0  0
  4 19  1  0  0  0
  5  6  1  0  0  0
  5  7  1  0  0  0
  5 34  1  0  0  0
  5 68  1  0  0  0
  6  8  1  0  0  0
  6 35  1  0  0  0
  7  9  1  0  0  0
  7 36  1  0  0  0
  7 37  1  0  0  0
  8 11  1  0  0  0
  8 38  1  0  0  0
  8 39  1  0  0  0
  9 11  1  0  0  0
  9 40  1  0  0  0
  9 41  1  0  0  0
 10 14  1  0  0  0
 10 17  1  0  0  0
 10 18  1  0  0  0
 10 20  1  0  0  0
 11 42  1  0  0  0
 11 43  1  0  0  0
 12 16  1  0  0  0
 12 44  1  0  0  0
 12 45  1  0  0  0
 12 68  1  0  0  0
 13 15  1  0  0  0
 13 46  1  0  0  0
 13 47  1  0  0  0
 13 68  1  0  0  0
 15 16  1  0  0  0
 15 50  1  0  0  0
 15 51  1  0  0  0
 16 48  1  0  0  0
 16 49  1  0  0  0
 17 18  2  0  0  0
 17 21  1  0  0  0
 18 22  1  0  0  0
 19 52  1  0  0  0
 19 53  1  0  0  0
 19 54  1  0  0  0
 21 24  2  0  0  0
 21 26  1  0  0  0
 22 23  2  0  0  0
 22 25  1  0  0  0
 23 28  1  0  0  0
 23 56  1  0  0  0
 24 27  1  0  0  0
 24 55  1  0  0  0
 25 30  2  0  0  0
 25 58  1  0  0  0
 26 29  2  0  0  0
 26 57  1  0  0  0
 27 32  2  0  0  0
 27 59  1  0  0  0
 28 33  2  0  0  0
 28 60  1  0  0  0
 29 32  1  0  0  0
 29 61  1  0  0  0
 30 33  1  0  0  0
 30 62  1  0  0  0
 31 63  1  0  0  0
 31 64  1  0  0  0
 31 65  1  0  0  0
 32 67  1  0  0  0
 33 66  1  0  0  0
 68 69  1  0  0  0
M  CHG  1  68   1
M  END
> <LID>
L017503

> <PC_CID>
44214376

> <Names>


> <CAS_Numbers>


$$$$
19019523
                    3D
 Structure written by MMmdl.
 48 50  0  0  1  0            999 V2000
   -4.3667    1.5575    2.9404 Cl  0  0  0  0  0  0
   -5.4983    3.0262    0.3457 Cl  0  0  0  0  0  0
    3.5715    4.3640   -0.3465 F   0  0  0  0  0  0
    0.1711    0.1533   -0.0011 O   0  0  0  0  0  0
    0.9452   -1.9271   -0.5011 N   0  0  0  0  0  0
    2.3991   -1.6235   -0.5853 C   0  0  1  0  0  0
    2.8358   -0.2383   -1.1504 C   0  0  0  0  0  0
    3.0995   -2.0921    0.7080 C   0  0  0  0  0  0
    2.8470   -3.5897    0.9565 C   0  0  0  0  0  0
    2.6585    2.2149   -0.8004 C   0  0  0  0  0  0
    4.0061    0.9761    0.7309 C   0  0  0  0  0  0
    0.7318   -3.3870   -0.4411 C   0  0  0  0  0  0
    1.3532   -3.9408    0.8551 C   0  0  0  0  0  0
    3.2403    3.1984    0.2076 C   0  0  1  0  0  0
    4.4500    2.4449    0.7448 C   0  0  0  0  0  0
   -0.0469   -1.0363   -0.2256 C   0  0  0  0  0  0
   -1.5102   -1.5248   -0.2039 C   0  0  0  0  0  0
   -2.5107   -0.3864   -0.0597 C   0  0  0  0  0  0
   -2.9409    0.0229    1.2203 C   0  0  0  0  0  0
   -3.0151    0.2649   -1.2049 C   0  0  0  0  0  0
   -3.8644    1.0781    1.3583 C   0  0  0  0  0  0
   -3.9387    1.3190   -1.0695 C   0  0  0  0  0  0
   -4.3654    1.7288    0.2091 C   0  0  0  0  0  0
    2.7667   -2.2936   -1.3647 H   0  0  0  0  0  0
    3.8336   -0.3137   -1.5856 H   0  0  0  0  0  0
    2.1774    0.0094   -1.9849 H   0  0  0  0  0  0
    4.1740   -1.9200    0.6467 H   0  0  0  0  0  0
    2.7309   -1.5184    1.5587 H   0  0  0  0  0  0
    3.3991   -4.1718    0.2175 H   0  0  0  0  0  0
    3.2384   -3.8822    1.9313 H   0  0  0  0  0  0
    1.6134    2.4202   -1.0344 H   0  0  0  0  0  0
    3.2293    2.2615   -1.7299 H   0  0  0  0  0  0
    3.7018    0.6604    1.7291 H   0  0  0  0  0  0
    4.8306    0.3356    0.4161 H   0  0  0  0  0  0
   -0.3089   -3.6983   -0.5014 H   0  0  0  0  0  0
    1.2030   -3.8580   -1.3050 H   0  0  0  0  0  0
    1.2231   -5.0225    0.9005 H   0  0  0  0  0  0
    0.8228   -3.5305    1.7155 H   0  0  0  0  0  0
    2.5252    3.3991    1.0068 H   0  0  0  0  0  0
    4.7581    2.7875    1.7331 H   0  0  0  0  0  0
    5.2958    2.5760    0.0680 H   0  0  0  0  0  0
   -1.7313   -2.0628   -1.1267 H   0  0  0  0  0  0
   -1.6496   -2.2216    0.6237 H   0  0  0  0  0  0
   -2.5585   -0.4704    2.1020 H   0  0  0  0  0  0
   -2.6928   -0.0398   -2.1899 H   0  0  0  0  0  0
   -4.3201    1.8147   -1.9501 H   0  0  0  0  0  0
    2.8328    0.8855   -0.1766 N   0  3  2  0  0  0
    2.0142    0.7561    0.4045 H   0  0  0  0  0  0
  1 21  1  0  0  0
  2 23  1  0  0  0
  3 14  1  0  0  0
  4 16  2  0  0  0
  5  6  1  0  0  0
  5 12  1  0  0  0
  5 16  1  0  0  0
  6  7  1  0  0  0
  6  8  1  0  0  0
  6 24  1  0  0  0
  7 25  1  0  0  0
  7 26  1  0  0  0
  7 47  1  0  0  0
  8  9  1  0  0  0
  8 27  1  0  0  0
  8 28  1  0  0  0
  9 13  1  0  0  0
  9 29  1  0  0  0
  9 30  1  0  0  0
 10 14  1  0  0  0
 10 31  1  0  0  0
 10 32  1  0  0  0
 10 47  1  0  0  0
 11 15  1  0  0  0
 11 33  1  0  0  0
 11 34  1  0  0  0
 11 47  1  0  0  0
 12 13  1  0  0  0
 12 35  1  0  0  0
 12 36  1  0  0  0
 13 37  1  0  0  0
 13 38  1  0  0  0
 14 15  1  0  0  0
 14 39  1  0  0  0
 15 40  1  0  0  0
 15 41  1  0  0  0
 16 17  1  0  0  0
 17 18  1  0  0  0
 17 42  1  0  0  0
 17 43  1  0  0  0
 18 19  2  0  0  0
 18 20  1  0  0  0
 19 21  1  0  0  0
 19 44  1  0  0  0
 20 22  2  0  0  0
 20 45  1  0  0  0
 21 23  2  0  0  0
 22 23  1  0  0  0
 22 46  1  0  0  0
 47 48  1  0  0  0
M  CHG  1  47   1
M  END
> <LID>
L005488

> <PC_CID>
19019523

> <Names>


> <CAS_Numbers>


$$$$
518962
                    3D
 Structure written by MMmdl.
 64 69  0  0  1  0            999 V2000
    3.1750   -0.4889   -1.3772 O   0  0  0  0  0  0
    5.5539   -2.7416   -1.5638 O   0  0  0  0  0  0
    7.2734   -2.7504    2.4547 O   0  0  0  0  0  0
    0.2916    0.2498   -0.7474 O   0  0  0  0  0  0
    4.9176    0.8697   -0.6217 C   0  0  2  0  0  0
    6.2045    0.8920    0.2208 C   0  0  1  0  0  0
    4.5155   -0.5756   -0.8495 C   0  0  2  0  0  0
    5.7937   -1.5043   -0.9030 C   0  0  1  0  0  0
    6.2525    2.3647    0.7257 C   0  0  1  0  0  0
    6.2093   -0.2457    1.3070 C   0  0  0  0  0  0
    6.1636   -1.6967    0.6407 C   0  0  2  0  0  0
    5.0804    1.7707   -1.8962 C   0  0  0  0  0  0
    3.6701    1.3118    0.0066 C   0  0  0  0  0  0
    7.2784    0.4429   -0.7813 C   0  0  0  0  0  0
    4.9495    2.7620    1.5331 C   0  0  0  0  0  0
    7.0067   -0.7167   -1.4247 C   0  0  0  0  0  0
    5.4404    3.2201   -1.4963 C   0  0  0  0  0  0
    7.3616   -2.6406    1.0439 C   0  0  1  0  0  0
    3.5840    2.3004    0.9795 C   0  0  0  0  0  0
    2.6700    0.5595   -0.6021 C   0  0  0  0  0  0
    8.7948   -2.1184    0.7220 C   0  0  0  0  0  0
    6.8821    4.6489   -0.0827 C   0  0  0  0  0  0
    2.2608    2.6297    1.3476 C   0  0  0  0  0  0
    7.1492   -4.0754    0.5213 C   0  0  0  0  0  0
    1.3590    0.9184   -0.2252 C   0  0  0  0  0  0
    1.1638    1.9582    0.7308 C   0  0  0  0  0  0
    5.2354   -2.6467   -2.9454 C   0  0  0  0  0  0
    9.9802   -2.9563    1.2564 C   0  0  0  0  0  0
   10.5530   -3.9539    0.2383 C   0  0  0  0  0  0
    4.1041   -1.0081    0.0675 H   0  0  0  0  0  0
    7.1135    2.4708    1.3870 H   0  0  0  0  0  0
    7.0797   -0.1292    1.9512 H   0  0  0  0  0  0
    5.3509   -0.1262    1.9691 H   0  0  0  0  0  0
    5.3228   -2.2184    1.1045 H   0  0  0  0  0  0
    5.8311    1.3941   -2.5893 H   0  0  0  0  0  0
    4.1672    1.7833   -2.4930 H   0  0  0  0  0  0
    8.1371    1.0593   -1.0024 H   0  0  0  0  0  0
    5.0269    2.3180    2.5259 H   0  0  0  0  0  0
    4.9067    3.8356    1.7101 H   0  0  0  0  0  0
    7.6505   -1.1350   -2.1841 H   0  0  0  0  0  0
    4.5532    3.7449   -1.1402 H   0  0  0  0  0  0
    5.7781    3.7667   -2.3776 H   0  0  0  0  0  0
    8.9303   -2.0171   -0.3525 H   0  0  0  0  0  0
    8.9047   -1.1120    1.1239 H   0  0  0  0  0  0
    6.0412    5.2089    0.3265 H   0  0  0  0  0  0
    7.6874    4.6492    0.6525 H   0  0  0  0  0  0
    7.2402    5.1847   -0.9624 H   0  0  0  0  0  0
    2.0793    3.3791    2.1040 H   0  0  0  0  0  0
    7.3642   -4.1479   -0.5446 H   0  0  0  0  0  0
    6.1240   -4.4124    0.6781 H   0  0  0  0  0  0
    7.7952   -4.7907    1.0305 H   0  0  0  0  0  0
    7.4174   -1.8975    2.8344 H   0  0  0  0  0  0
    0.1579    2.2203    1.0245 H   0  0  0  0  0  0
    5.0695   -3.6479   -3.3428 H   0  0  0  0  0  0
    4.3256   -2.0720   -3.1160 H   0  0  0  0  0  0
    6.0442   -2.1964   -3.5206 H   0  0  0  0  0  0
   10.7851   -2.2725    1.5282 H   0  0  0  0  0  0
    9.7187   -3.4747    2.1788 H   0  0  0  0  0  0
    0.5504   -0.4297   -1.3514 H   0  0  0  0  0  0
   10.9000   -3.4429   -0.6601 H   0  0  0  0  0  0
   11.4042   -4.4878    0.6612 H   0  0  0  0  0  0
    9.8196   -4.6987   -0.0664 H   0  0  0  0  0  0
    6.4974    3.2664   -0.4478 N   0  3  2  0  0  0
    7.3192    2.8810   -0.8908 H   0  0  0  0  0  0
  1  7  1  0  0  0
  1 20  1  0  0  0
  2  8  1  0  0  0
  2 27  1  0  0  0
  3 18  1  0  0  0
  3 52  1  0  0  0
  4 25  1  0  0  0
  4 59  1  0  0  0
  5  6  1  0  0  0
  5  7  1  0  0  0
  5 12  1  0  0  0
  5 13  1  0  0  0
  6  9  1  0  0  0
  6 10  1  0  0  0
  6 14  1  0  0  0
  7  8  1  0  0  0
  7 30  1  0  0  0
  8 11  1  0  0  0
  8 16  1  0  0  0
  9 15  1  0  0  0
  9 31  1  0  0  0
  9 63  1  0  0  0
 10 11  1  0  0  0
 10 32  1  0  0  0
 10 33  1  0  0  0
 11 18  1  0  0  0
 11 34  1  0  0  0
 12 17  1  0  0  0
 12 35  1  0  0  0
 12 36  1  0  0  0
 13 19  2  0  0  0
 13 20  1  0  0  0
 14 16  2  0  0  0
 14 37  1  0  0  0
 15 19  1  0  0  0
 15 38  1  0  0  0
 15 39  1  0  0  0
 16 40  1  0  0  0
 17 41  1  0  0  0
 17 42  1  0  0  0
 17 63  1  0  0  0
 18 21  1  0  0  0
 18 24  1  0  0  0
 19 23  1  0  0  0
 20 25  2  0  0  0
 21 28  1  0  0  0
 21 43  1  0  0  0
 21 44  1  0  0  0
 22 45  1  0  0  0
 22 46  1  0  0  0
 22 47  1  0  0  0
 22 63  1  0  0  0
 23 26  2  0  0  0
 23 48  1  0  0  0
 24 49  1  0  0  0
 24 50  1  0  0  0
 24 51  1  0  0  0
 25 26  1  0  0  0
 26 53  1  0  0  0
 27 54  1  0  0  0
 27 55  1  0  0  0
 27 56  1  0  0  0
 28 29  1  0  0  0
 28 57  1  0  0  0
 28 58  1  0  0  0
 29 60  1  0  0  0
 29 61  1  0  0  0
 29 62  1  0  0  0
 63 64  1  0  0  0
M  CHG  1  63   1
M  END
> <LID>
L024016

> <PC_CID>
518962

> <Names>
Etorphine

> <CAS_Numbers>


$$$$
44214373
                    3D
 Structure written by MMmdl.
 63 67  0  0  1  0            999 V2000
    1.3007   -1.1850    1.3132 O   0  0  0  0  0  0
    1.2840    0.7858    0.1833 N   0  0  0  0  0  0
    3.8060    0.9333   -0.1793 C   0  0  1  0  0  0
    2.5808    1.2481    0.7333 C   0  0  1  0  0  0
    5.1000    1.4023    0.5392 C   0  0  0  0  0  0
    2.5316    2.7392    1.1456 C   0  0  0  0  0  0
    5.0395    2.8829    0.9477 C   0  0  0  0  0  0
    3.8283    3.1641    1.8452 C   0  0  0  0  0  0
    5.1042   -1.2311   -0.6475 C   0  0  0  0  0  0
    3.2103   -0.7471   -1.9271 C   0  0  0  0  0  0
    5.6324   -1.0227   -2.0664 C   0  0  0  0  0  0
    4.3750   -0.8467   -2.9221 C   0  0  0  0  0  0
   -0.6756   -0.6625    0.1317 C   0  0  1  0  0  0
    0.7110   -0.3743    0.5976 C   0  0  0  0  0  0
   -1.7021   -1.0277    1.1773 C   0  0  0  0  0  0
   -1.8338    0.1570    0.6926 C   0  0  0  0  0  0
    0.6758    1.6368   -0.8505 C   0  0  0  0  0  0
   -2.6221   -2.1533    1.4051 C   0  0  0  0  0  0
   -2.9307    0.8479   -0.0030 C   0  0  0  0  0  0
   -4.0099   -1.9674    1.5900 C   0  0  0  0  0  0
   -3.8681    0.1553   -0.8008 C   0  0  0  0  0  0
   -2.0777   -3.4528    1.4619 C   0  0  0  0  0  0
   -3.0154    2.2500    0.1170 C   0  0  0  0  0  0
   -4.8477   -3.0785    1.8085 C   0  0  0  0  0  0
   -4.8945    0.8620   -1.4572 C   0  0  0  0  0  0
   -2.9168   -4.5629    1.6802 C   0  0  0  0  0  0
   -4.0424    2.9553   -0.5402 C   0  0  0  0  0  0
   -4.3023   -4.3762    1.8504 C   0  0  0  0  0  0
   -4.9835    2.2613   -1.3250 C   0  0  0  0  0  0
    3.7313    1.5395   -1.0838 H   0  0  0  0  0  0
    2.7589    0.7184    1.6712 H   0  0  0  0  0  0
    5.9678    1.2725   -0.1076 H   0  0  0  0  0  0
    5.2728    0.8005    1.4326 H   0  0  0  0  0  0
    1.6862    2.9140    1.8123 H   0  0  0  0  0  0
    2.3814    3.3839    0.2797 H   0  0  0  0  0  0
    4.9889    3.5085    0.0555 H   0  0  0  0  0  0
    5.9567    3.1614    1.4675 H   0  0  0  0  0  0
    3.9342    2.6277    2.7891 H   0  0  0  0  0  0
    3.7871    4.2248    2.0947 H   0  0  0  0  0  0
    4.8811   -2.2912   -0.5170 H   0  0  0  0  0  0
    5.8264   -0.9913    0.1308 H   0  0  0  0  0  0
    2.4785    0.0035   -2.2240 H   0  0  0  0  0  0
    2.6845   -1.7022   -1.8906 H   0  0  0  0  0  0
    6.2537   -1.8542   -2.4006 H   0  0  0  0  0  0
    6.2392   -0.1176   -2.1116 H   0  0  0  0  0  0
    4.4525    0.0601   -3.5233 H   0  0  0  0  0  0
    4.2314   -1.6836   -3.6065 H   0  0  0  0  0  0
   -0.7530   -1.1480   -0.8391 H   0  0  0  0  0  0
    0.1417    1.0624   -1.6082 H   0  0  0  0  0  0
    1.4265    2.2119   -1.3919 H   0  0  0  0  0  0
   -0.0236    2.3406   -0.3989 H   0  0  0  0  0  0
   -4.4402   -0.9774    1.5828 H   0  0  0  0  0  0
   -3.7998   -0.9149   -0.9270 H   0  0  0  0  0  0
   -1.0154   -3.6027    1.3330 H   0  0  0  0  0  0
   -2.2968    2.7888    0.7174 H   0  0  0  0  0  0
   -5.9088   -2.9343    1.9495 H   0  0  0  0  0  0
   -5.6110    0.3307   -2.0662 H   0  0  0  0  0  0
   -2.4974   -5.5575    1.7180 H   0  0  0  0  0  0
   -4.1080    4.0290   -0.4425 H   0  0  0  0  0  0
   -4.9455   -5.2274    2.0190 H   0  0  0  0  0  0
   -5.7705    2.8025   -1.8294 H   0  0  0  0  0  0
    3.8083   -0.5130   -0.5907 N   0  3  0  0  0  0
    3.2390   -0.9865    0.0984 H   0  0  0  0  0  0
  1 14  2  0  0  0
  2  4  1  0  0  0
  2 14  1  0  0  0
  2 17  1  0  0  0
  3  4  1  0  0  0
  3  5  1  0  0  0
  3 30  1  0  0  0
  3 62  1  0  0  0
  4  6  1  0  0  0
  4 31  1  0  0  0
  5  7  1  0  0  0
  5 32  1  0  0  0
  5 33  1  0  0  0
  6  8  1  0  0  0
  6 34  1  0  0  0
  6 35  1  0  0  0
  7  8  1  0  0  0
  7 36  1  0  0  0
  7 37  1  0  0  0
  8 38  1  0  0  0
  8 39  1  0  0  0
  9 11  1  0  0  0
  9 40  1  0  0  0
  9 41  1  0  0  0
  9 62  1  0  0  0
 10 12  1  0  0  0
 10 42  1  0  0  0
 10 43  1  0  0  0
 10 62  1  0  0  0
 11 12  1  0  0  0
 11 44  1  0  0  0
 11 45  1  0  0  0
 12 46  1  0  0  0
 12 47  1  0  0  0
 13 14  1  0  0  0
 13 15  1  0  0  0
 13 16  1  0  0  0
 13 48  1  0  0  0
 15 16  2  0  0  0
 15 18  1  0  0  0
 16 19  1  0  0  0
 17 49  1  0  0  0
 17 50  1  0  0  0
 17 51  1  0  0  0
 18 20  2  0  0  0
 18 22  1  0  0  0
 19 21  2  0  0  0
 19 23  1  0  0  0
 20 24  1  0  0  0
 20 52  1  0  0  0
 21 25  1  0  0  0
 21 53  1  0  0  0
 22 26  2  0  0  0
 22 54  1  0  0  0
 23 27  2  0  0  0
 23 55  1  0  0  0
 24 28  2  0  0  0
 24 56  1  0  0  0
 25 29  2  0  0  0
 25 57  1  0  0  0
 26 28  1  0  0  0
 26 58  1  0  0  0
 27 29  1  0  0  0
 27 59  1  0  0  0
 28 60  1  0  0  0
 29 61  1  0  0  0
 62 63  1  0  0  0
M  CHG  1  62   1
M  END
> <LID>
L017496

> <PC_CID>
44214373

> <Names>


> <CAS_Numbers>


$$$$
42800
                    3D
 Structure written by MMmdl.
 48 51  0  0  1  0            999 V2000
   -0.5389   -2.7553   -0.2264 O   0  0  0  0  0  0
    4.7247    0.3597    1.7406 O   0  0  0  0  0  0
    0.8088    1.1026   -1.1879 C   0  0  1  0  0  0
    0.0850    0.2029   -2.2126 C   0  0  1  0  0  0
   -0.9016   -0.6961   -1.4395 C   0  0  1  0  0  0
   -0.2187    2.0043   -0.4455 C   0  0  1  0  0  0
   -3.0323   -1.0165    1.2532 C   0  0  0  0  0  0
   -1.3118    1.1457    0.2356 C   0  0  0  0  0  0
   -3.1043   -0.5674   -0.2009 C   0  0  0  0  0  0
   -3.6619   -0.1965    2.3577 C   0  0  0  0  0  0
   -4.2825   -1.5072    1.9470 C   0  0  0  0  0  0
    1.6031    0.2176   -0.2258 C   0  0  0  0  0  0
   -0.1267   -1.6222   -0.4712 C   0  0  0  0  0  0
    0.4515    2.9823    0.5449 C   0  0  0  0  0  0
   -0.5677    0.9595   -3.3851 C   0  0  0  0  0  0
    1.1330   -1.0784    0.1218 C   0  0  0  0  0  0
    2.8182    0.6899    0.3159 C   0  0  0  0  0  0
   -0.4774    4.0969    1.0463 C   0  0  0  0  0  0
    1.8812   -1.8678    1.0243 C   0  0  0  0  0  0
    3.5553   -0.1052    1.2137 C   0  0  0  0  0  0
    3.0844   -1.3821    1.5697 C   0  0  0  0  0  0
    1.5170    1.7358   -1.7248 H   0  0  0  0  0  0
    0.8388   -0.4376   -2.6759 H   0  0  0  0  0  0
   -1.4391   -1.3168   -2.1572 H   0  0  0  0  0  0
   -0.7069    2.6250   -1.1967 H   0  0  0  0  0  0
   -2.1296   -1.5607    1.5178 H   0  0  0  0  0  0
   -0.9040    0.6497    1.1171 H   0  0  0  0  0  0
   -2.1168    1.7890    0.5912 H   0  0  0  0  0  0
   -3.3164   -1.4321   -0.8309 H   0  0  0  0  0  0
   -3.9574    0.1029   -0.3128 H   0  0  0  0  0  0
   -3.1428   -0.1623    3.3135 H   0  0  0  0  0  0
   -4.1866    0.7158    2.0806 H   0  0  0  0  0  0
   -5.2200   -1.4665    1.3958 H   0  0  0  0  0  0
   -4.1805   -2.3478    2.6306 H   0  0  0  0  0  0
    0.8509    2.4395    1.4022 H   0  0  0  0  0  0
    1.3067    3.4517    0.0573 H   0  0  0  0  0  0
    0.1584    1.5972   -3.8900 H   0  0  0  0  0  0
   -0.9559    0.2597   -4.1258 H   0  0  0  0  0  0
   -1.3997    1.5885   -3.0706 H   0  0  0  0  0  0
    3.1817    1.6711    0.0469 H   0  0  0  0  0  0
    0.0686    4.7939    1.6825 H   0  0  0  0  0  0
   -0.8957    4.6672    0.2165 H   0  0  0  0  0  0
   -1.3042    3.7004    1.6351 H   0  0  0  0  0  0
    1.5431   -2.8555    1.3037 H   0  0  0  0  0  0
    3.6485   -1.9945    2.2580 H   0  0  0  0  0  0
    4.9554    1.2238    1.4359 H   0  0  0  0  0  0
   -1.8964    0.1458   -0.7023 N   0  3  2  0  0  0
   -2.2745    0.7166   -1.4448 H   0  0  0  0  0  0
  1 13  2  0  0  0
  2 20  1  0  0  0
  2 46  1  0  0  0
  3  4  1  0  0  0
  3  6  1  0  0  0
  3 12  1  0  0  0
  3 22  1  0  0  0
  4  5  1  0  0  0
  4 15  1  0  0  0
  4 23  1  0  0  0
  5 13  1  0  0  0
  5 24  1  0  0  0
  5 47  1  0  0  0
  6  8  1  0  0  0
  6 14  1  0  0  0
  6 25  1  0  0  0
  7  9  1  0  0  0
  7 10  1  0  0  0
  7 11  1  0  0  0
  7 26  1  0  0  0
  8 27  1  0  0  0
  8 28  1  0  0  0
  8 47  1  0  0  0
  9 29  1  0  0  0
  9 30  1  0  0  0
  9 47  1  0  0  0
 10 11  1  0  0  0
 10 31  1  0  0  0
 10 32  1  0  0  0
 11 33  1  0  0  0
 11 34  1  0  0  0
 12 16  2  0  0  0
 12 17  1  0  0  0
 13 16  1  0  0  0
 14 18  1  0  0  0
 14 35  1  0  0  0
 14 36  1  0  0  0
 15 37  1  0  0  0
 15 38  1  0  0  0
 15 39  1  0  0  0
 16 19  1  0  0  0
 17 20  2  0  0  0
 17 40  1  0  0  0
 18 41  1  0  0  0
 18 42  1  0  0  0
 18 43  1  0  0  0
 19 21  2  0  0  0
 19 44  1  0  0  0
 20 21  1  0  0  0
 21 45  1  0  0  0
 47 48  1  0  0  0
M  CHG  1  47   1
M  END
> <LID>
L024009

> <PC_CID>
42800

> <Names>
Ethylketocyclazocine

> <CAS_Numbers>
58640-84-9

$$$$
44212827
                    3D
 Structure written by MMmdl.
 51 54  0  0  1  0            999 V2000
    7.4611   -0.3359   -0.0404 F   0  0  0  0  0  0
    6.8057    1.7297    0.0006 F   0  0  0  0  0  0
    6.7095    0.5335    1.7973 F   0  0  0  0  0  0
    0.3732    0.6220    0.1522 O   0  0  0  0  0  0
   -1.2319   -0.8005   -0.5717 N   0  0  0  0  0  0
   -3.3498   -2.2873    0.3655 N   0  0  0  0  0  0
   -4.3342   -0.6216    1.5006 N   0  0  0  0  0  0
   -5.0266   -1.7869    1.7758 N   0  0  0  0  0  0
   -2.3259   -0.0320    0.0796 C   0  0  1  0  0  0
   -2.9273    0.9852   -0.9193 C   0  0  0  0  0  0
   -4.7705    2.6251   -1.2868 C   0  0  0  0  0  0
   -3.4597    2.8126    0.7025 C   0  0  0  0  0  0
   -4.8842    4.0567   -0.7471 C   0  0  0  0  0  0
   -4.4808    3.9449    0.7188 C   0  0  0  0  0  0
   -3.3564   -0.9761    0.6578 C   0  0  0  0  0  0
   -1.6726   -1.9693   -1.3627 C   0  0  0  0  0  0
   -2.3951   -2.9833   -0.4635 C   0  0  0  0  0  0
    0.0632   -0.4165   -0.4356 C   0  0  0  0  0  0
   -4.3900   -2.7325    1.0833 C   0  0  0  0  0  0
    1.1777   -1.3048   -1.0232 C   0  0  0  0  0  0
    2.5722   -0.8341   -0.6353 C   0  0  0  0  0  0
    3.2803    0.0550   -1.4707 C   0  0  0  0  0  0
    3.1685   -1.2897    0.5592 C   0  0  0  0  0  0
    4.5707    0.4895   -1.1110 C   0  0  0  0  0  0
    4.4590   -0.8545    0.9179 C   0  0  0  0  0  0
    5.1665    0.0425    0.0883 C   0  0  0  0  0  0
    6.5643    0.5058    0.4720 C   0  0  0  0  0  0
   -1.9280    0.5137    0.9364 H   0  0  0  0  0  0
   -2.1415    1.6083   -1.3497 H   0  0  0  0  0  0
   -3.3839    0.4449   -1.7494 H   0  0  0  0  0  0
   -5.7527    2.1582   -1.3667 H   0  0  0  0  0  0
   -4.3244    2.6270   -2.2827 H   0  0  0  0  0  0
   -2.4865    3.2020    0.3982 H   0  0  0  0  0  0
   -3.3456    2.3442    1.6806 H   0  0  0  0  0  0
   -5.8808    4.4794   -0.8784 H   0  0  0  0  0  0
   -4.1782    4.7029   -1.2708 H   0  0  0  0  0  0
   -4.0782    4.8748    1.1218 H   0  0  0  0  0  0
   -5.3439    3.6600    1.3224 H   0  0  0  0  0  0
   -0.8776   -2.4741   -1.9083 H   0  0  0  0  0  0
   -2.3600   -1.6199   -2.1336 H   0  0  0  0  0  0
   -2.9125   -3.7379   -1.0570 H   0  0  0  0  0  0
   -1.6859   -3.4971    0.1865 H   0  0  0  0  0  0
   -4.6857   -3.7712    1.1060 H   0  0  0  0  0  0
    1.0506   -2.3310   -0.6759 H   0  0  0  0  0  0
    1.0975   -1.3158   -2.1108 H   0  0  0  0  0  0
    2.8351    0.4084   -2.3893 H   0  0  0  0  0  0
    2.6369   -1.9730    1.2052 H   0  0  0  0  0  0
    5.1025    1.1678   -1.7619 H   0  0  0  0  0  0
    4.9044   -1.2141    1.8337 H   0  0  0  0  0  0
   -3.9613    1.8578   -0.3096 N   0  3  0  0  0  0
   -4.6129    1.2529    0.1726 H   0  0  0  0  0  0
  1 27  1  0  0  0
  2 27  1  0  0  0
  3 27  1  0  0  0
  4 18  2  0  0  0
  5  9  1  0  0  0
  5 16  1  0  0  0
  5 18  1  0  0  0
  6 15  1  0  0  0
  6 17  1  0  0  0
  6 19  1  0  0  0
  7  8  1  0  0  0
  7 15  2  0  0  0
  8 19  2  0  0  0
  9 10  1  0  0  0
  9 15  1  0  0  0
  9 28  1  0  0  0
 10 29  1  0  0  0
 10 30  1  0  0  0
 10 50  1  0  0  0
 11 13  1  0  0  0
 11 31  1  0  0  0
 11 32  1  0  0  0
 11 50  1  0  0  0
 12 14  1  0  0  0
 12 33  1  0  0  0
 12 34  1  0  0  0
 12 50  1  0  0  0
 13 14  1  0  0  0
 13 35  1  0  0  0
 13 36  1  0  0  0
 14 37  1  0  0  0
 14 38  1  0  0  0
 16 17  1  0  0  0
 16 39  1  0  0  0
 16 40  1  0  0  0
 17 41  1  0  0  0
 17 42  1  0  0  0
 18 20  1  0  0  0
 19 43  1  0  0  0
 20 21  1  0  0  0
 20 44  1  0  0  0
 20 45  1  0  0  0
 21 22  2  0  0  0
 21 23  1  0  0  0
 22 24  1  0  0  0
 22 46  1  0  0  0
 23 25  2  0  0  0
 23 47  1  0  0  0
 24 26  2  0  0  0
 24 48  1  0  0  0
 25 26  1  0  0  0
 25 49  1  0  0  0
 26 27  1  0  0  0
 50 51  1  0  0  0
M  CHG  1  50   1
M  END
> <LID>
L013601

> <PC_CID>
44212827

> <Names>


> <CAS_Numbers>


$$$$
44212826
                    3D
 Structure written by MMmdl.
 48 51  0  0  1  0            999 V2000
    6.1217    1.9127   -1.3843 Cl  0  0  0  0  0  0
    7.3006    0.5034    1.2223 Cl  0  0  0  0  0  0
    0.9722    0.6564    0.4305 O   0  0  0  0  0  0
   -0.5819   -0.6441   -0.5784 N   0  0  0  0  0  0
   -2.7592   -2.2197    0.0145 N   0  0  0  0  0  0
   -3.8162   -0.7059    1.2887 N   0  0  0  0  0  0
   -4.5265   -1.8905    1.3633 N   0  0  0  0  0  0
   -1.7166    0.0438    0.0930 C   0  0  1  0  0  0
   -2.2487    1.1875   -0.8030 C   0  0  0  0  0  0
   -4.0618    2.8786   -1.0763 C   0  0  0  0  0  0
   -2.8878    2.7943    1.0034 C   0  0  0  0  0  0
   -4.2103    4.2292   -0.3640 C   0  0  0  0  0  0
   -3.9068    3.9246    1.0986 C   0  0  0  0  0  0
   -2.7843   -0.9575    0.4737 C   0  0  0  0  0  0
   -0.9692   -1.6963   -1.5422 C   0  0  0  0  0  0
   -1.7516   -2.8114   -0.8327 C   0  0  0  0  0  0
    0.7015   -0.2931   -0.3078 C   0  0  0  0  0  0
   -3.8457   -2.7443    0.5975 C   0  0  0  0  0  0
    1.8525   -1.1065   -0.9324 C   0  0  0  0  0  0
    3.2183   -0.6992   -0.3981 C   0  0  0  0  0  0
    3.9678    0.3009   -1.0531 C   0  0  0  0  0  0
    3.7443   -1.3213    0.7535 C   0  0  0  0  0  0
    5.2318    0.6819   -0.5606 C   0  0  0  0  0  0
    5.0074   -0.9426    1.2472 C   0  0  0  0  0  0
    5.7538    0.0579    0.5940 C   0  0  0  0  0  0
   -1.3768    0.4701    1.0381 H   0  0  0  0  0  0
   -1.4354    1.8537   -1.0955 H   0  0  0  0  0  0
   -2.6488    0.7636   -1.7249 H   0  0  0  0  0  0
   -5.0369    2.4354   -1.2814 H   0  0  0  0  0  0
   -3.5498    3.0052   -2.0316 H   0  0  0  0  0  0
   -1.8960    3.2105    0.8179 H   0  0  0  0  0  0
   -2.8402    2.2020    1.9178 H   0  0  0  0  0  0
   -5.1955    4.6750   -0.5055 H   0  0  0  0  0  0
   -3.4701    4.9310   -0.7511 H   0  0  0  0  0  0
   -3.5315    4.7905    1.6449 H   0  0  0  0  0  0
   -4.8088    3.5722    1.6010 H   0  0  0  0  0  0
   -0.1397   -2.1339   -2.0944 H   0  0  0  0  0  0
   -1.6028   -1.2434   -2.3053 H   0  0  0  0  0  0
   -2.2286   -3.4775   -1.5524 H   0  0  0  0  0  0
   -1.0881   -3.4120   -0.2093 H   0  0  0  0  0  0
   -4.1431   -3.7743    0.4652 H   0  0  0  0  0  0
    1.7040   -2.1680   -0.7298 H   0  0  0  0  0  0
    1.8432   -0.9762   -2.0152 H   0  0  0  0  0  0
    3.5714    0.7825   -1.9351 H   0  0  0  0  0  0
    3.1792   -2.0878    1.2636 H   0  0  0  0  0  0
    5.4039   -1.4215    2.1305 H   0  0  0  0  0  0
   -3.3208    1.9835   -0.1554 N   0  3  0  0  0  0
   -4.0039    1.3274    0.1996 H   0  0  0  0  0  0
  1 23  1  0  0  0
  2 25  1  0  0  0
  3 17  2  0  0  0
  4  8  1  0  0  0
  4 15  1  0  0  0
  4 17  1  0  0  0
  5 14  1  0  0  0
  5 16  1  0  0  0
  5 18  1  0  0  0
  6  7  1  0  0  0
  6 14  2  0  0  0
  7 18  2  0  0  0
  8  9  1  0  0  0
  8 14  1  0  0  0
  8 26  1  0  0  0
  9 27  1  0  0  0
  9 28  1  0  0  0
  9 47  1  0  0  0
 10 12  1  0  0  0
 10 29  1  0  0  0
 10 30  1  0  0  0
 10 47  1  0  0  0
 11 13  1  0  0  0
 11 31  1  0  0  0
 11 32  1  0  0  0
 11 47  1  0  0  0
 12 13  1  0  0  0
 12 33  1  0  0  0
 12 34  1  0  0  0
 13 35  1  0  0  0
 13 36  1  0  0  0
 15 16  1  0  0  0
 15 37  1  0  0  0
 15 38  1  0  0  0
 16 39  1  0  0  0
 16 40  1  0  0  0
 17 19  1  0  0  0
 18 41  1  0  0  0
 19 20  1  0  0  0
 19 42  1  0  0  0
 19 43  1  0  0  0
 20 21  2  0  0  0
 20 22  1  0  0  0
 21 23  1  0  0  0
 21 44  1  0  0  0
 22 24  2  0  0  0
 22 45  1  0  0  0
 23 25  2  0  0  0
 24 25  1  0  0  0
 24 46  1  0  0  0
 47 48  1  0  0  0
M  CHG  1  47   1
M  END
> <LID>
L013600

> <PC_CID>
44212826

> <Names>


> <CAS_Numbers>


$$$$
44212825
                    3D
 Structure written by MMmdl.
 51 54  0  0  1  0            999 V2000
   -7.1717    0.4397    1.1505 F   0  0  0  0  0  0
   -7.2570   -0.7507   -0.6505 F   0  0  0  0  0  0
   -6.4226   -1.5941    1.1633 F   0  0  0  0  0  0
   -0.3402   -0.5709    0.1517 O   0  0  0  0  0  0
    1.2657    0.8499   -0.5733 N   0  0  0  0  0  0
    3.3929    2.3239    0.3453 N   0  0  0  0  0  0
    4.3811    0.6972    1.4752 N   0  0  0  0  0  0
    4.4065    2.9349    0.9939 N   0  0  0  0  0  0
    2.3573    0.0807    0.0837 C   0  0  1  0  0  0
    2.9490   -0.9522   -0.9034 C   0  0  0  0  0  0
    4.7979   -2.5913   -1.2477 C   0  0  0  0  0  0
    3.4770   -2.7642    0.7365 C   0  0  0  0  0  0
    4.9135   -4.0173   -0.6937 C   0  0  0  0  0  0
    4.5014   -3.8932    0.7689 C   0  0  0  0  0  0
    3.3970    1.0244    0.6438 C   0  0  0  0  0  0
    1.7070    2.0175   -1.3682 C   0  0  0  0  0  0
    2.4417    3.0314   -0.4771 C   0  0  0  0  0  0
   -0.0296    0.4654   -0.4396 C   0  0  0  0  0  0
   -1.1433    1.3498   -1.0347 C   0  0  0  0  0  0
    4.9680    1.9206    1.6497 C   0  0  0  0  0  0
   -2.5388    0.8753   -0.6549 C   0  0  0  0  0  0
   -3.2372   -0.0202   -1.4915 C   0  0  0  0  0  0
   -3.1435    1.3297    0.5358 C   0  0  0  0  0  0
   -4.5284   -0.4585   -1.1392 C   0  0  0  0  0  0
   -4.4347    0.8908    0.8871 C   0  0  0  0  0  0
   -5.1381   -0.0021    0.0497 C   0  0  0  0  0  0
   -6.5292   -0.4839    0.4345 C   0  0  0  0  0  0
    1.9587   -0.4502    0.9494 H   0  0  0  0  0  0
    2.1598   -1.5785   -1.3226 H   0  0  0  0  0  0
    3.4046   -0.4243   -1.7423 H   0  0  0  0  0  0
    5.7789   -2.1219   -1.3277 H   0  0  0  0  0  0
    4.3562   -2.6044   -2.2454 H   0  0  0  0  0  0
    2.5066   -3.1593    0.4308 H   0  0  0  0  0  0
    3.3564   -2.2867    1.7094 H   0  0  0  0  0  0
    5.9124   -4.4377   -0.8154 H   0  0  0  0  0  0
    4.2128   -4.6710   -1.2152 H   0  0  0  0  0  0
    4.0993   -4.8206    1.1782 H   0  0  0  0  0  0
    5.3602   -3.6002    1.3747 H   0  0  0  0  0  0
    0.9114    2.5257   -1.9097 H   0  0  0  0  0  0
    2.3878    1.6623   -2.1425 H   0  0  0  0  0  0
    2.9610    3.7796   -1.0771 H   0  0  0  0  0  0
    1.7406    3.5517    0.1767 H   0  0  0  0  0  0
   -1.0213    2.3767   -0.6875 H   0  0  0  0  0  0
   -1.0569    1.3600   -2.1219 H   0  0  0  0  0  0
    5.8315    2.0670    2.2820 H   0  0  0  0  0  0
   -2.7828   -0.3781   -2.4038 H   0  0  0  0  0  0
   -2.6165    2.0127    1.1860 H   0  0  0  0  0  0
   -5.0487   -1.1498   -1.7857 H   0  0  0  0  0  0
   -4.8824    1.2415    1.8053 H   0  0  0  0  0  0
    3.9814   -1.8176   -0.2818 N   0  3  0  0  0  0
    4.6269   -1.2052    0.1998 H   0  0  0  0  0  0
  1 27  1  0  0  0
  2 27  1  0  0  0
  3 27  1  0  0  0
  4 18  2  0  0  0
  5  9  1  0  0  0
  5 16  1  0  0  0
  5 18  1  0  0  0
  6  8  1  0  0  0
  6 15  1  0  0  0
  6 17  1  0  0  0
  7 15  2  0  0  0
  7 20  1  0  0  0
  8 20  2  0  0  0
  9 10  1  0  0  0
  9 15  1  0  0  0
  9 28  1  0  0  0
 10 29  1  0  0  0
 10 30  1  0  0  0
 10 50  1  0  0  0
 11 13  1  0  0  0
 11 31  1  0  0  0
 11 32  1  0  0  0
 11 50  1  0  0  0
 12 14  1  0  0  0
 12 33  1  0  0  0
 12 34  1  0  0  0
 12 50  1  0  0  0
 13 14  1  0  0  0
 13 35  1  0  0  0
 13 36  1  0  0  0
 14 37  1  0  0  0
 14 38  1  0  0  0
 16 17  1  0  0  0
 16 39  1  0  0  0
 16 40  1  0  0  0
 17 41  1  0  0  0
 17 42  1  0  0  0
 18 19  1  0  0  0
 19 21  1  0  0  0
 19 43  1  0  0  0
 19 44  1  0  0  0
 20 45  1  0  0  0
 21 22  2  0  0  0
 21 23  1  0  0  0
 22 24  1  0  0  0
 22 46  1  0  0  0
 23 25  2  0  0  0
 23 47  1  0  0  0
 24 26  2  0  0  0
 24 48  1  0  0  0
 25 26  1  0  0  0
 25 49  1  0  0  0
 26 27  1  0  0  0
 50 51  1  0  0  0
M  CHG  1  50   1
M  END
> <LID>
L013599

> <PC_CID>
44212825

> <Names>


> <CAS_Numbers>


$$$$
44212824
                    3D
 Structure written by MMmdl.
 48 51  0  0  1  0            999 V2000
   -6.0650   -1.8883   -1.4214 Cl  0  0  0  0  0  0
   -7.2680   -0.5000    1.1855 Cl  0  0  0  0  0  0
   -0.9345   -0.6135    0.4327 O   0  0  0  0  0  0
    0.6192    0.6953   -0.5658 N   0  0  0  0  0  0
    2.8023    2.2536    0.0235 N   0  0  0  0  0  0
    3.8642    0.7688    1.2754 N   0  0  0  0  0  0
    3.8566    2.9310    0.5243 N   0  0  0  0  0  0
    1.7525    0.0033    0.1063 C   0  0  1  0  0  0
    2.2776   -1.1464   -0.7848 C   0  0  0  0  0  0
    4.1001   -2.8294   -1.0486 C   0  0  0  0  0  0
    2.9146   -2.7498    1.0249 C   0  0  0  0  0  0
    4.2524   -4.1786   -0.3344 C   0  0  0  0  0  0
    3.9390   -3.8747    1.1263 C   0  0  0  0  0  0
    2.8267    1.0000    0.4773 C   0  0  0  0  0  0
    1.0059    1.7541   -1.5245 C   0  0  0  0  0  0
    1.7981    2.8631   -0.8142 C   0  0  0  0  0  0
   -0.6642    0.3398   -0.3009 C   0  0  0  0  0  0
   -1.8156    1.1521   -0.9260 C   0  0  0  0  0  0
    4.4610    1.9997    1.2603 C   0  0  0  0  0  0
   -3.1824    0.7342   -0.4026 C   0  0  0  0  0  0
   -3.9222   -0.2663   -1.0678 C   0  0  0  0  0  0
   -3.7191    1.3470    0.7491 C   0  0  0  0  0  0
   -5.1871   -0.6571   -0.5853 C   0  0  0  0  0  0
   -4.9832    0.9586    1.2328 C   0  0  0  0  0  0
   -5.7199   -0.0424    0.5694 C   0  0  0  0  0  0
    1.4127   -0.4156    1.0547 H   0  0  0  0  0  0
    1.4626   -1.8130   -1.0714 H   0  0  0  0  0  0
    2.6760   -0.7278   -1.7099 H   0  0  0  0  0  0
    5.0737   -2.3810   -1.2493 H   0  0  0  0  0  0
    3.5933   -2.9596   -2.0062 H   0  0  0  0  0  0
    1.9259   -3.1713    0.8347 H   0  0  0  0  0  0
    2.8592   -2.1568    1.9384 H   0  0  0  0  0  0
    5.2408   -4.6189   -0.4701 H   0  0  0  0  0  0
    3.5183   -4.8848   -0.7251 H   0  0  0  0  0  0
    3.5652   -4.7423    1.6710 H   0  0  0  0  0  0
    4.8363   -3.5173    1.6336 H   0  0  0  0  0  0
    0.1758    2.1991   -2.0697 H   0  0  0  0  0  0
    1.6336    1.3022   -2.2932 H   0  0  0  0  0  0
    2.2761    3.5287   -1.5341 H   0  0  0  0  0  0
    1.1421    3.4645   -0.1838 H   0  0  0  0  0  0
   -1.6733    2.2128   -0.7149 H   0  0  0  0  0  0
   -1.7998    1.0297   -2.0097 H   0  0  0  0  0  0
    5.3646    2.2153    1.8114 H   0  0  0  0  0  0
   -3.5177   -0.7409   -1.9499 H   0  0  0  0  0  0
   -3.1616    2.1138    1.2670 H   0  0  0  0  0  0
   -5.3878    1.4304    2.1162 H   0  0  0  0  0  0
    3.3496   -1.9378   -0.1321 N   0  3  0  0  0  0
    4.0255   -1.2765    0.2275 H   0  0  0  0  0  0
  1 23  1  0  0  0
  2 25  1  0  0  0
  3 17  2  0  0  0
  4  8  1  0  0  0
  4 15  1  0  0  0
  4 17  1  0  0  0
  5  7  1  0  0  0
  5 14  1  0  0  0
  5 16  1  0  0  0
  6 14  2  0  0  0
  6 19  1  0  0  0
  7 19  2  0  0  0
  8  9  1  0  0  0
  8 14  1  0  0  0
  8 26  1  0  0  0
  9 27  1  0  0  0
  9 28  1  0  0  0
  9 47  1  0  0  0
 10 12  1  0  0  0
 10 29  1  0  0  0
 10 30  1  0  0  0
 10 47  1  0  0  0
 11 13  1  0  0  0
 11 31  1  0  0  0
 11 32  1  0  0  0
 11 47  1  0  0  0
 12 13  1  0  0  0
 12 33  1  0  0  0
 12 34  1  0  0  0
 13 35  1  0  0  0
 13 36  1  0  0  0
 15 16  1  0  0  0
 15 37  1  0  0  0
 15 38  1  0  0  0
 16 39  1  0  0  0
 16 40  1  0  0  0
 17 18  1  0  0  0
 18 20  1  0  0  0
 18 41  1  0  0  0
 18 42  1  0  0  0
 19 43  1  0  0  0
 20 21  2  0  0  0
 20 22  1  0  0  0
 21 23  1  0  0  0
 21 44  1  0  0  0
 22 24  2  0  0  0
 22 45  1  0  0  0
 23 25  2  0  0  0
 24 25  1  0  0  0
 24 46  1  0  0  0
 47 48  1  0  0  0
M  CHG  1  47   1
M  END
> <LID>
L013598

> <PC_CID>
44212824

> <Names>


> <CAS_Numbers>


$$$$
44212823
                    3D
 Structure written by MMmdl.
 50 53  0  0  1  0            999 V2000
    5.5080   -3.0238    1.2768 Cl  0  0  0  0  0  0
    7.4711   -1.0698   -0.3039 Cl  0  0  0  0  0  0
   -4.4505   -4.2608    1.6267 O   0  0  0  0  0  0
    1.1924   -0.3749   -1.1469 O   0  0  0  0  0  0
   -0.5200    0.6413   -0.0700 N   0  0  0  0  0  0
   -2.6367    2.4257   -0.4262 N   0  0  0  0  0  0
   -3.4528    1.4568   -2.2552 N   0  0  0  0  0  0
   -1.4755    0.3400   -1.1738 C   0  0  1  0  0  0
   -2.0434   -1.0997   -1.0700 C   0  0  0  0  0  0
   -2.7865   -2.8180    0.5669 C   0  0  0  0  0  0
   -4.1461   -0.8781    0.2944 C   0  0  0  0  0  0
   -3.9540   -2.9418    1.5420 C   0  0  1  0  0  0
   -4.9842   -1.9833    0.9512 C   0  0  0  0  0  0
   -2.5427    1.4016   -1.2877 C   0  0  0  0  0  0
   -1.0779    1.3474    1.1039 C   0  0  0  0  0  0
   -1.7436    2.6629    0.6820 C   0  0  0  0  0  0
    0.7823    0.2676   -0.1780 C   0  0  0  0  0  0
   -3.6969    3.2113   -0.8516 C   0  0  0  0  0  0
   -4.1974    2.6006   -1.9771 C   0  0  0  0  0  0
    1.7774    0.6519    0.9353 C   0  0  0  0  0  0
    3.2030    0.2152    0.6286 C   0  0  0  0  0  0
    3.6615   -1.0534    1.0424 C   0  0  0  0  0  0
    4.0752    1.0771   -0.0688 C   0  0  0  0  0  0
    4.9798   -1.4623    0.7590 C   0  0  0  0  0  0
    5.3931    0.6710   -0.3526 C   0  0  0  0  0  0
    5.8492   -0.5970    0.0587 C   0  0  0  0  0  0
   -0.9407    0.4012   -2.1237 H   0  0  0  0  0  0
   -2.6895   -1.3250   -1.9198 H   0  0  0  0  0  0
   -1.2055   -1.7940   -1.1490 H   0  0  0  0  0  0
   -1.8402   -3.1484    0.9966 H   0  0  0  0  0  0
   -2.9807   -3.4147   -0.3269 H   0  0  0  0  0  0
   -4.5606   -0.6297   -0.6833 H   0  0  0  0  0  0
   -4.1536    0.0313    0.8960 H   0  0  0  0  0  0
   -3.6522   -2.5976    2.5325 H   0  0  0  0  0  0
   -5.6795   -1.6001    1.6988 H   0  0  0  0  0  0
   -5.5714   -2.4903    0.1836 H   0  0  0  0  0  0
   -0.3552    1.5659    1.8873 H   0  0  0  0  0  0
   -1.8177    0.7062    1.5809 H   0  0  0  0  0  0
   -2.3042    3.0991    1.5095 H   0  0  0  0  0  0
   -0.9942    3.3907    0.3685 H   0  0  0  0  0  0
   -3.9925    4.1157   -0.3402 H   0  0  0  0  0  0
   -3.7914   -4.8131    2.0198 H   0  0  0  0  0  0
   -5.0216    2.8981   -2.6087 H   0  0  0  0  0  0
    1.7679    1.7336    1.0766 H   0  0  0  0  0  0
    1.4667    0.1957    1.8760 H   0  0  0  0  0  0
    2.9996   -1.7196    1.5763 H   0  0  0  0  0  0
    3.7350    2.0504   -0.3914 H   0  0  0  0  0  0
    6.0555    1.3348   -0.8886 H   0  0  0  0  0  0
   -2.7540   -1.3871    0.2019 N   0  3  2  0  0  0
   -2.2352   -0.9347    0.9406 H   0  0  0  0  0  0
  1 24  1  0  0  0
  2 26  1  0  0  0
  3 12  1  0  0  0
  3 42  1  0  0  0
  4 17  2  0  0  0
  5  8  1  0  0  0
  5 15  1  0  0  0
  5 17  1  0  0  0
  6 14  1  0  0  0
  6 16  1  0  0  0
  6 18  1  0  0  0
  7 14  2  0  0  0
  7 19  1  0  0  0
  8  9  1  0  0  0
  8 14  1  0  0  0
  8 27  1  0  0  0
  9 28  1  0  0  0
  9 29  1  0  0  0
  9 49  1  0  0  0
 10 12  1  0  0  0
 10 30  1  0  0  0
 10 31  1  0  0  0
 10 49  1  0  0  0
 11 13  1  0  0  0
 11 32  1  0  0  0
 11 33  1  0  0  0
 11 49  1  0  0  0
 12 13  1  0  0  0
 12 34  1  0  0  0
 13 35  1  0  0  0
 13 36  1  0  0  0
 15 16  1  0  0  0
 15 37  1  0  0  0
 15 38  1  0  0  0
 16 39  1  0  0  0
 16 40  1  0  0  0
 17 20  1  0  0  0
 18 19  2  0  0  0
 18 41  1  0  0  0
 19 43  1  0  0  0
 20 21  1  0  0  0
 20 44  1  0  0  0
 20 45  1  0  0  0
 21 22  2  0  0  0
 21 23  1  0  0  0
 22 24  1  0  0  0
 22 46  1  0  0  0
 23 25  2  0  0  0
 23 47  1  0  0  0
 24 26  2  0  0  0
 25 26  1  0  0  0
 25 48  1  0  0  0
 49 50  1  0  0  0
M  CHG  1  49   1
M  END
> <LID>
L013597

> <PC_CID>
44212823

> <Names>


> <CAS_Numbers>


$$$$
44212822
                    3D
 Structure written by MMmdl.
 52 55  0  0  1  0            999 V2000
    7.5092    0.6746    0.1288 F   0  0  0  0  0  0
    6.9287   -1.4136    0.1322 F   0  0  0  0  0  0
    6.8011   -0.2633   -1.6923 F   0  0  0  0  0  0
    0.4616   -0.5427   -0.0804 O   0  0  0  0  0  0
   -1.1981    0.8343    0.6072 N   0  0  0  0  0  0
   -3.3930    2.2191   -0.3629 N   0  0  0  0  0  0
   -4.3087    0.4852   -1.4176 N   0  0  0  0  0  0
   -2.2602    0.0119   -0.0264 C   0  0  1  0  0  0
   -2.8100   -1.0180    0.9880 C   0  0  0  0  0  0
   -4.5980   -2.7140    1.3777 C   0  0  0  0  0  0
   -3.2722   -2.8906   -0.6030 C   0  0  0  0  0  0
   -4.6624   -4.1571    0.8609 C   0  0  0  0  0  0
   -4.2553   -4.0562   -0.6049 C   0  0  0  0  0  0
   -3.3376    0.8998   -0.6086 C   0  0  0  0  0  0
   -1.6869    2.0016    1.3674 C   0  0  0  0  0  0
   -2.4433    2.9595    0.4369 C   0  0  0  0  0  0
    0.1110    0.4962    0.4833 C   0  0  0  0  0  0
   -4.4821    2.7114   -1.0656 C   0  0  0  0  0  0
    1.1890    1.4385    1.0545 C   0  0  0  0  0  0
   -5.0433    1.6327   -1.7073 C   0  0  0  0  0  0
    2.6020    1.0097    0.6852 C   0  0  0  0  0  0
    3.3365    0.1667    1.5452 C   0  0  0  0  0  0
    3.1888    1.4583   -0.5165 C   0  0  0  0  0  0
    4.6440   -0.2291    1.2028 C   0  0  0  0  0  0
    4.4963    1.0619   -0.8580 C   0  0  0  0  0  0
    5.2306    0.2109   -0.0037 C   0  0  0  0  0  0
    6.6465   -0.2104   -0.3688 C   0  0  0  0  0  0
   -1.8428   -0.5254   -0.8793 H   0  0  0  0  0  0
   -1.9970   -1.6034    1.4204 H   0  0  0  0  0  0
   -3.2840   -0.4873    1.8146 H   0  0  0  0  0  0
   -5.5952   -2.2781    1.4465 H   0  0  0  0  0  0
   -4.1557   -2.6852    2.3748 H   0  0  0  0  0  0
   -2.2881   -3.2423   -0.2884 H   0  0  0  0  0  0
   -3.1692   -2.4342   -1.5880 H   0  0  0  0  0  0
   -5.6455   -4.6098    0.9945 H   0  0  0  0  0  0
   -3.9386   -4.7714    1.3984 H   0  0  0  0  0  0
   -3.8201   -4.9788   -0.9905 H   0  0  0  0  0  0
   -5.1242   -3.8101   -1.2171 H   0  0  0  0  0  0
   -0.9140    2.5521    1.9003 H   0  0  0  0  0  0
   -2.3634    1.6459    2.1452 H   0  0  0  0  0  0
   -2.9717    3.7228    1.0090 H   0  0  0  0  0  0
   -1.7518    3.4681   -0.2359 H   0  0  0  0  0  0
   -4.7556    3.7564   -1.0559 H   0  0  0  0  0  0
    1.0266    2.4507    0.6816 H   0  0  0  0  0  0
    1.1021    1.4730    2.1412 H   0  0  0  0  0  0
   -5.9063    1.5949   -2.3557 H   0  0  0  0  0  0
    2.8987   -0.1809    2.4695 H   0  0  0  0  0  0
    2.6368    2.1066   -1.1813 H   0  0  0  0  0  0
    5.1959   -0.8723    1.8723 H   0  0  0  0  0  0
    4.9340    1.4158   -1.7797 H   0  0  0  0  0  0
   -3.8102   -1.9369    0.3910 N   0  3  0  0  0  0
   -4.4768   -1.3601   -0.1055 H   0  0  0  0  0  0
  1 27  1  0  0  0
  2 27  1  0  0  0
  3 27  1  0  0  0
  4 17  2  0  0  0
  5  8  1  0  0  0
  5 15  1  0  0  0
  5 17  1  0  0  0
  6 14  1  0  0  0
  6 16  1  0  0  0
  6 18  1  0  0  0
  7 14  2  0  0  0
  7 20  1  0  0  0
  8  9  1  0  0  0
  8 14  1  0  0  0
  8 28  1  0  0  0
  9 29  1  0  0  0
  9 30  1  0  0  0
  9 51  1  0  0  0
 10 12  1  0  0  0
 10 31  1  0  0  0
 10 32  1  0  0  0
 10 51  1  0  0  0
 11 13  1  0  0  0
 11 33  1  0  0  0
 11 34  1  0  0  0
 11 51  1  0  0  0
 12 13  1  0  0  0
 12 35  1  0  0  0
 12 36  1  0  0  0
 13 37  1  0  0  0
 13 38  1  0  0  0
 15 16  1  0  0  0
 15 39  1  0  0  0
 15 40  1  0  0  0
 16 41  1  0  0  0
 16 42  1  0  0  0
 17 19  1  0  0  0
 18 20  2  0  0  0
 18 43  1  0  0  0
 19 21  1  0  0  0
 19 44  1  0  0  0
 19 45  1  0  0  0
 20 46  1  0  0  0
 21 22  2  0  0  0
 21 23  1  0  0  0
 22 24  1  0  0  0
 22 47  1  0  0  0
 23 25  2  0  0  0
 23 48  1  0  0  0
 24 26  2  0  0  0
 24 49  1  0  0  0
 25 26  1  0  0  0
 25 50  1  0  0  0
 26 27  1  0  0  0
 51 52  1  0  0  0
M  CHG  1  51   1
M  END
> <LID>
L013596

> <PC_CID>
44212822

> <Names>


> <CAS_Numbers>


$$$$
44212821
                    3D
 Structure written by MMmdl.
 49 52  0  0  1  0            999 V2000
    6.1178   -1.8220    1.4857 Cl  0  0  0  0  0  0
    7.3077   -0.4504   -1.1359 Cl  0  0  0  0  0  0
    0.9753   -0.6028   -0.3766 O   0  0  0  0  0  0
   -0.5861    0.7063    0.6094 N   0  0  0  0  0  0
   -2.7923    2.2662   -0.0043 N   0  0  0  0  0  0
   -3.8359    0.7180   -1.2172 N   0  0  0  0  0  0
   -1.7162    0.0062   -0.0529 C   0  0  1  0  0  0
   -2.2319   -1.1399    0.8487 C   0  0  0  0  0  0
   -4.0470   -2.8282    1.1308 C   0  0  0  0  0  0
   -2.8645   -2.7627   -0.9451 C   0  0  0  0  0  0
   -4.1957   -4.1842    0.4285 C   0  0  0  0  0  0
   -3.8851   -3.8921   -1.0352 C   0  0  0  0  0  0
   -2.7990    0.9926   -0.4305 C   0  0  0  0  0  0
   -0.9821    1.7694    1.5542 C   0  0  0  0  0  0
   -1.7660    2.8651    0.8191 C   0  0  0  0  0  0
    0.6992    0.3559    0.3477 C   0  0  0  0  0  0
   -3.9085    2.8779   -0.5541 C   0  0  0  0  0  0
   -4.5484    1.9125   -1.2949 C   0  0  0  0  0  0
    1.8453    1.1815    0.9652 C   0  0  0  0  0  0
    3.2146    0.7688    0.4444 C   0  0  0  0  0  0
    3.9626   -0.2197    1.1186 C   0  0  0  0  0  0
    3.7455    1.3742   -0.7138 C   0  0  0  0  0  0
    5.2299   -0.6057    0.6386 C   0  0  0  0  0  0
    5.0120    0.9906   -1.1949 C   0  0  0  0  0  0
    5.7568    0.0016   -0.5226 C   0  0  0  0  0  0
   -1.3759   -0.4186   -0.9984 H   0  0  0  0  0  0
   -1.4123   -1.7995    1.1385 H   0  0  0  0  0  0
   -2.6306   -0.7166    1.7715 H   0  0  0  0  0  0
   -5.0218   -2.3814    1.3292 H   0  0  0  0  0  0
   -3.5380   -2.9483    2.0885 H   0  0  0  0  0  0
   -1.8741   -3.1789   -0.7523 H   0  0  0  0  0  0
   -2.8124   -2.1774   -1.8637 H   0  0  0  0  0  0
   -5.1825   -4.6264    0.5693 H   0  0  0  0  0  0
   -3.4588   -4.8845    0.8245 H   0  0  0  0  0  0
   -3.5089   -4.7631   -1.5728 H   0  0  0  0  0  0
   -4.7842   -3.5422   -1.5445 H   0  0  0  0  0  0
   -0.1565    2.2218    2.1002 H   0  0  0  0  0  0
   -1.6165    1.3267    2.3228 H   0  0  0  0  0  0
   -2.2282    3.5550    1.5259 H   0  0  0  0  0  0
   -1.1042    3.4445    0.1741 H   0  0  0  0  0  0
   -4.1445    3.9180   -0.3827 H   0  0  0  0  0  0
    1.6953    2.2393    0.7452 H   0  0  0  0  0  0
    1.8307    1.0683    2.0499 H   0  0  0  0  0  0
   -5.4538    1.9862   -1.8793 H   0  0  0  0  0  0
    3.5624   -0.6886    2.0057 H   0  0  0  0  0  0
    3.1817    2.1317   -1.2385 H   0  0  0  0  0  0
    5.4122    1.4567   -2.0834 H   0  0  0  0  0  0
   -3.3011   -1.9423    0.2053 N   0  3  0  0  0  0
   -3.9794   -1.2859   -0.1593 H   0  0  0  0  0  0
  1 23  1  0  0  0
  2 25  1  0  0  0
  3 16  2  0  0  0
  4  7  1  0  0  0
  4 14  1  0  0  0
  4 16  1  0  0  0
  5 13  1  0  0  0
  5 15  1  0  0  0
  5 17  1  0  0  0
  6 13  2  0  0  0
  6 18  1  0  0  0
  7  8  1  0  0  0
  7 13  1  0  0  0
  7 26  1  0  0  0
  8 27  1  0  0  0
  8 28  1  0  0  0
  8 48  1  0  0  0
  9 11  1  0  0  0
  9 29  1  0  0  0
  9 30  1  0  0  0
  9 48  1  0  0  0
 10 12  1  0  0  0
 10 31  1  0  0  0
 10 32  1  0  0  0
 10 48  1  0  0  0
 11 12  1  0  0  0
 11 33  1  0  0  0
 11 34  1  0  0  0
 12 35  1  0  0  0
 12 36  1  0  0  0
 14 15  1  0  0  0
 14 37  1  0  0  0
 14 38  1  0  0  0
 15 39  1  0  0  0
 15 40  1  0  0  0
 16 19  1  0  0  0
 17 18  2  0  0  0
 17 41  1  0  0  0
 18 44  1  0  0  0
 19 20  1  0  0  0
 19 42  1  0  0  0
 19 43  1  0  0  0
 20 21  2  0  0  0
 20 22  1  0  0  0
 21 23  1  0  0  0
 21 45  1  0  0  0
 22 24  2  0  0  0
 22 46  1  0  0  0
 23 25  2  0  0  0
 24 25  1  0  0  0
 24 47  1  0  0  0
 48 49  1  0  0  0
M  CHG  1  48   1
M  END
> <LID>
L013595

> <PC_CID>
44212821

> <Names>


> <CAS_Numbers>


$$$$
44212039
                    3D
 Structure written by MMmdl.
 53 55  0  0  1  0            999 V2000
   -0.8022    2.7419    1.2995 S   0  0  0  0  0  0
   -2.9631   -1.5651   -2.3834 F   0  0  0  0  0  0
   -3.3847   -3.1887   -0.1845 F   0  0  0  0  0  0
   -0.4511   -3.8775    0.9390 O   0  0  0  0  0  0
   -0.6046    1.8468    2.4504 O   0  0  0  0  0  0
   -0.7180    4.1984    1.4823 O   0  0  0  0  0  0
    0.3720    2.3249    0.0824 N   0  0  0  0  0  0
    0.8369   -2.5899   -0.6511 C   0  0  0  0  0  0
    1.5960   -1.6889    1.4318 C   0  0  0  0  0  0
    0.8459   -3.7114    0.3999 C   0  0  1  0  0  0
    0.5729   -0.1517   -0.2510 C   0  0  0  0  0  0
    1.7893   -3.2009    1.4857 C   0  0  0  0  0  0
    1.2541    1.1434    0.2445 C   0  0  1  0  0  0
    2.6617    1.3655   -0.3114 C   0  0  0  0  0  0
    0.2228    2.8929   -1.2661 C   0  0  0  0  0  0
   -2.4474    2.3853    0.5147 C   0  0  0  0  0  0
    2.9989    1.0220   -1.6419 C   0  0  0  0  0  0
    3.6483    1.9391    0.5204 C   0  0  0  0  0  0
   -2.7119    0.9018    0.3346 C   0  0  0  0  0  0
    4.3039    1.2384   -2.1246 C   0  0  0  0  0  0
    4.9533    2.1551    0.0373 C   0  0  0  0  0  0
    5.2823    1.8030   -1.2850 C   0  0  0  0  0  0
   -2.7369    0.3450   -0.9624 C   0  0  0  0  0  0
   -2.9477    0.0729    1.4524 C   0  0  0  0  0  0
   -2.9629   -1.0341   -1.1378 C   0  0  0  0  0  0
   -3.1737   -1.3061    1.2764 C   0  0  0  0  0  0
   -3.1777   -1.8608   -0.0179 C   0  0  0  0  0  0
    1.4983   -2.8426   -1.4805 H   0  0  0  0  0  0
   -0.1588   -2.4369   -1.0718 H   0  0  0  0  0  0
    0.7143   -1.4165    2.0150 H   0  0  0  0  0  0
    2.4497   -1.1467    1.8397 H   0  0  0  0  0  0
    0.3487   -0.0816   -1.3156 H   0  0  0  0  0  0
   -0.3754   -0.2830    0.2608 H   0  0  0  0  0  0
    1.1784   -4.6636   -0.0153 H   0  0  0  0  0  0
    2.8189   -3.4462    1.2212 H   0  0  0  0  0  0
    1.5901   -3.6241    2.4712 H   0  0  0  0  0  0
    1.4073    1.0204    1.3160 H   0  0  0  0  0  0
   -0.3557    3.8160   -1.2273 H   0  0  0  0  0  0
    1.1910    3.1384   -1.7006 H   0  0  0  0  0  0
   -0.2934    2.1922   -1.9219 H   0  0  0  0  0  0
   -1.0199   -4.2291    0.2701 H   0  0  0  0  0  0
   -3.2167    2.8027    1.1647 H   0  0  0  0  0  0
   -2.5102    2.9196   -0.4328 H   0  0  0  0  0  0
    2.2625    0.5990   -2.3081 H   0  0  0  0  0  0
    3.4076    2.2183    1.5360 H   0  0  0  0  0  0
    4.5541    0.9746   -3.1418 H   0  0  0  0  0  0
    5.7017    2.5932    0.6813 H   0  0  0  0  0  0
    6.2828    1.9701   -1.6562 H   0  0  0  0  0  0
   -2.5677    0.9692   -1.8275 H   0  0  0  0  0  0
   -2.9443    0.4893    2.4493 H   0  0  0  0  0  0
   -3.3413   -1.9396    2.1350 H   0  0  0  0  0  0
    1.3768   -1.3720    0.0026 N   0  3  2  0  0  0
    2.2900   -1.2186   -0.4020 H   0  0  0  0  0  0
  1  5  2  0  0  0
  1  6  2  0  0  0
  1  7  1  0  0  0
  1 16  1  0  0  0
  2 25  1  0  0  0
  3 27  1  0  0  0
  4 10  1  0  0  0
  4 41  1  0  0  0
  7 13  1  0  0  0
  7 15  1  0  0  0
  8 10  1  0  0  0
  8 28  1  0  0  0
  8 29  1  0  0  0
  8 52  1  0  0  0
  9 12  1  0  0  0
  9 30  1  0  0  0
  9 31  1  0  0  0
  9 52  1  0  0  0
 10 12  1  0  0  0
 10 34  1  0  0  0
 11 13  1  0  0  0
 11 32  1  0  0  0
 11 33  1  0  0  0
 11 52  1  0  0  0
 12 35  1  0  0  0
 12 36  1  0  0  0
 13 14  1  0  0  0
 13 37  1  0  0  0
 14 17  2  0  0  0
 14 18  1  0  0  0
 15 38  1  0  0  0
 15 39  1  0  0  0
 15 40  1  0  0  0
 16 19  1  0  0  0
 16 42  1  0  0  0
 16 43  1  0  0  0
 17 20  1  0  0  0
 17 44  1  0  0  0
 18 21  2  0  0  0
 18 45  1  0  0  0
 19 23  2  0  0  0
 19 24  1  0  0  0
 20 22  2  0  0  0
 20 46  1  0  0  0
 21 22  1  0  0  0
 21 47  1  0  0  0
 22 48  1  0  0  0
 23 25  1  0  0  0
 23 49  1  0  0  0
 24 26  2  0  0  0
 24 50  1  0  0  0
 25 27  2  0  0  0
 26 27  1  0  0  0
 26 51  1  0  0  0
 52 53  1  0  0  0
M  CHG  1  52   1
M  END
> <LID>
L011384

> <PC_CID>
44212039

> <Names>


> <CAS_Numbers>


$$$$
9822348
                    3D
 Structure written by MMmdl.
 50 53  0  0  1  0            999 V2000
   -6.3883    1.7653   -0.9248 Cl  0  0  0  0  0  0
   -7.3397    0.0925    1.6181 Cl  0  0  0  0  0  0
   -1.0838    0.6775    0.5063 O   0  0  0  0  0  0
    0.4800   -0.4736   -0.6607 N   0  0  0  0  0  0
    1.6188    0.1965    0.0025 C   0  0  2  0  0  0
    2.1070    1.3667   -0.8916 C   0  0  0  0  0  0
    2.7348   -0.7857    0.3836 C   0  0  0  0  0  0
    0.8692   -1.4247   -1.7141 C   0  0  0  0  0  0
    1.7086   -2.5667   -1.1323 C   0  0  0  0  0  0
    2.7845   -2.0879   -0.1749 C   0  0  0  0  0  0
    3.8787    3.1001   -1.1737 C   0  0  0  0  0  0
    2.5396    3.1120    0.8511 C   0  0  0  0  0  0
   -0.8038   -0.2035   -0.3095 C   0  0  0  0  0  0
    3.7185   -0.4102    1.3274 C   0  0  0  0  0  0
    3.8226   -2.9733    0.1819 C   0  0  0  0  0  0
    4.0096    4.4022   -0.4356 C   0  0  0  0  0  0
    3.2762    4.4090    0.6716 C   0  0  0  0  0  0
   -1.9440   -1.0266   -0.9411 C   0  0  0  0  0  0
    4.7530   -1.2967    1.6805 C   0  0  0  0  0  0
    4.8096   -2.5773    1.1026 C   0  0  0  0  0  0
   -3.2972   -0.7418   -0.3052 C   0  0  0  0  0  0
   -4.1354    0.2606   -0.8375 C   0  0  0  0  0  0
   -3.7228   -1.4806    0.8187 C   0  0  0  0  0  0
   -5.3881    0.5284   -0.2505 C   0  0  0  0  0  0
   -4.9744   -1.2154    1.4066 C   0  0  0  0  0  0
   -5.8094   -0.2124    0.8760 C   0  0  0  0  0  0
    1.2901    0.6129    0.9560 H   0  0  0  0  0  0
    2.5672    0.9597   -1.7925 H   0  0  0  0  0  0
    1.2635    1.9736   -1.2255 H   0  0  0  0  0  0
    0.0387   -1.8382   -2.2835 H   0  0  0  0  0  0
    1.4660   -0.8904   -2.4526 H   0  0  0  0  0  0
    1.0598   -3.2532   -0.5870 H   0  0  0  0  0  0
    2.1644   -3.1408   -1.9399 H   0  0  0  0  0  0
    3.3514    3.2684   -2.1140 H   0  0  0  0  0  0
    4.8528    2.6573   -1.3831 H   0  0  0  0  0  0
    2.7251    2.6841    1.8361 H   0  0  0  0  0  0
    1.4685    3.2839    0.7352 H   0  0  0  0  0  0
    3.6861    0.5589    1.7997 H   0  0  0  0  0  0
    3.8592   -3.9654   -0.2442 H   0  0  0  0  0  0
    4.6141    5.2212   -0.7973 H   0  0  0  0  0  0
    3.1838    5.2343    1.3625 H   0  0  0  0  0  0
   -2.0009   -0.8083   -2.0082 H   0  0  0  0  0  0
   -1.7301   -2.0912   -0.8368 H   0  0  0  0  0  0
    5.5007   -0.9963    2.3999 H   0  0  0  0  0  0
    5.6010   -3.2600    1.3749 H   0  0  0  0  0  0
   -3.8161    0.8313   -1.6974 H   0  0  0  0  0  0
   -3.0891   -2.2501    1.2351 H   0  0  0  0  0  0
   -5.2937   -1.7833    2.2681 H   0  0  0  0  0  0
    3.0978    2.2495   -0.2315 N   0  3  0  0  0  0
    3.7793    1.6474    0.2087 H   0  0  0  0  0  0
  1 24  1  0  0  0
  2 26  1  0  0  0
  3 13  2  0  0  0
  4  5  1  0  0  0
  4  8  1  0  0  0
  4 13  1  0  0  0
  5  6  1  0  0  0
  5  7  1  0  0  0
  5 27  1  0  0  0
  6 28  1  0  0  0
  6 29  1  0  0  0
  6 49  1  0  0  0
  7 10  1  0  0  0
  7 14  2  0  0  0
  8  9  1  0  0  0
  8 30  1  0  0  0
  8 31  1  0  0  0
  9 10  1  0  0  0
  9 32  1  0  0  0
  9 33  1  0  0  0
 10 15  2  0  0  0
 11 16  1  0  0  0
 11 34  1  0  0  0
 11 35  1  0  0  0
 11 49  1  0  0  0
 12 17  1  0  0  0
 12 36  1  0  0  0
 12 37  1  0  0  0
 12 49  1  0  0  0
 13 18  1  0  0  0
 14 19  1  0  0  0
 14 38  1  0  0  0
 15 20  1  0  0  0
 15 39  1  0  0  0
 16 17  2  0  0  0
 16 40  1  0  0  0
 17 41  1  0  0  0
 18 21  1  0  0  0
 18 42  1  0  0  0
 18 43  1  0  0  0
 19 20  2  0  0  0
 19 44  1  0  0  0
 20 45  1  0  0  0
 21 22  2  0  0  0
 21 23  1  0  0  0
 22 24  1  0  0  0
 22 46  1  0  0  0
 23 25  2  0  0  0
 23 47  1  0  0  0
 24 26  2  0  0  0
 25 26  1  0  0  0
 25 48  1  0  0  0
 49 50  1  0  0  0
M  CHG  1  49   1
M  END
> <LID>
L005480

> <PC_CID>
9822348

> <Names>


> <CAS_Numbers>


$$$$
19896747
                    3D
 Structure written by MMmdl.
 54 56  0  0  1  0            999 V2000
   -5.0015    2.5322    2.8693 Cl  0  0  0  0  0  0
   -7.1076    0.4321    1.7187 Cl  0  0  0  0  0  0
   -0.9197   -0.5835    0.5572 O   0  0  0  0  0  0
    4.4570    1.7944    1.4743 O   0  0  0  0  0  0
    0.6666    0.2913   -0.7984 N   0  0  0  0  0  0
    3.0716    1.6232   -0.3281 N   0  0  0  0  0  0
    3.7358    3.6580    0.4330 N   0  0  0  0  0  0
    1.7553   -0.4994   -0.1841 C   0  0  1  0  0  0
    1.7231   -1.9636   -0.6831 C   0  0  0  0  0  0
    3.1445    0.1561   -0.4001 C   0  0  0  0  0  0
    2.9042   -4.1567   -0.6325 C   0  0  0  0  0  0
    2.4976   -3.0337    1.4380 C   0  0  0  0  0  0
    2.9144   -5.1854    0.5053 C   0  0  0  0  0  0
    3.1767   -4.3607    1.7599 C   0  0  0  0  0  0
    1.1123    1.2145   -1.8532 C   0  0  0  0  0  0
    2.1216    2.2309   -1.2817 C   0  0  0  0  0  0
   -0.6080    0.2045   -0.3387 C   0  0  0  0  0  0
    3.7837    2.3246    0.5896 C   0  0  0  0  0  0
   -1.6916    1.1151   -0.9488 C   0  0  0  0  0  0
   -3.0472    0.9488   -0.2769 C   0  0  0  0  0  0
    4.4387    4.6109    1.2790 C   0  0  0  0  0  0
   -3.3774    1.7229    0.8557 C   0  0  0  0  0  0
   -3.9825    0.0224   -0.7837 C   0  0  0  0  0  0
   -4.6304    1.5713    1.4821 C   0  0  0  0  0  0
   -5.2355   -0.1304   -0.1598 C   0  0  0  0  0  0
   -5.5632    0.6411    0.9726 C   0  0  0  0  0  0
    1.5864   -0.4880    0.8944 H   0  0  0  0  0  0
    0.7342   -2.4035   -0.5463 H   0  0  0  0  0  0
    1.9171   -1.9754   -1.7568 H   0  0  0  0  0  0
    3.5302   -0.0991   -1.3884 H   0  0  0  0  0  0
    3.8636   -0.2682    0.3020 H   0  0  0  0  0  0
    3.8523   -4.1630   -1.1712 H   0  0  0  0  0  0
    2.1162   -4.3880   -1.3511 H   0  0  0  0  0  0
    1.4276   -3.1131    1.6384 H   0  0  0  0  0  0
    2.8924   -2.2106    2.0345 H   0  0  0  0  0  0
    1.9346   -5.6596    0.5795 H   0  0  0  0  0  0
    3.6537   -5.9731    0.3561 H   0  0  0  0  0  0
    4.2493   -4.2097    1.8899 H   0  0  0  0  0  0
    2.7885   -4.8280    2.6655 H   0  0  0  0  0  0
    0.3105    1.7445   -2.3643 H   0  0  0  0  0  0
    1.5916    0.6212   -2.6334 H   0  0  0  0  0  0
    1.5464    3.0095   -0.7774 H   0  0  0  0  0  0
    2.6687    2.7136   -2.0926 H   0  0  0  0  0  0
   -1.3847    2.1581   -0.8601 H   0  0  0  0  0  0
   -1.7951    0.8947   -2.0120 H   0  0  0  0  0  0
    3.1810    4.0315   -0.3229 H   0  0  0  0  0  0
    4.2319    5.6280    0.9464 H   0  0  0  0  0  0
    4.1170    4.5192    2.3172 H   0  0  0  0  0  0
    5.5164    4.4492    1.2332 H   0  0  0  0  0  0
   -2.6659    2.4337    1.2500 H   0  0  0  0  0  0
   -3.7405   -0.5762   -1.6498 H   0  0  0  0  0  0
   -5.9467   -0.8428   -0.5515 H   0  0  0  0  0  0
    2.7260   -2.8232   -0.0085 N   0  3  0  0  0  0
    3.6205   -2.3611   -0.0914 H   0  0  0  0  0  0
  1 24  1  0  0  0
  2 26  1  0  0  0
  3 17  2  0  0  0
  4 18  2  0  0  0
  5  8  1  0  0  0
  5 15  1  0  0  0
  5 17  1  0  0  0
  6 10  1  0  0  0
  6 16  1  0  0  0
  6 18  1  0  0  0
  7 18  1  0  0  0
  7 21  1  0  0  0
  7 46  1  0  0  0
  8  9  1  0  0  0
  8 10  1  0  0  0
  8 27  1  0  0  0
  9 28  1  0  0  0
  9 29  1  0  0  0
  9 53  1  0  0  0
 10 30  1  0  0  0
 10 31  1  0  0  0
 11 13  1  0  0  0
 11 32  1  0  0  0
 11 33  1  0  0  0
 11 53  1  0  0  0
 12 14  1  0  0  0
 12 34  1  0  0  0
 12 35  1  0  0  0
 12 53  1  0  0  0
 13 14  1  0  0  0
 13 36  1  0  0  0
 13 37  1  0  0  0
 14 38  1  0  0  0
 14 39  1  0  0  0
 15 16  1  0  0  0
 15 40  1  0  0  0
 15 41  1  0  0  0
 16 42  1  0  0  0
 16 43  1  0  0  0
 17 19  1  0  0  0
 19 20  1  0  0  0
 19 44  1  0  0  0
 19 45  1  0  0  0
 20 22  2  0  0  0
 20 23  1  0  0  0
 21 47  1  0  0  0
 21 48  1  0  0  0
 21 49  1  0  0  0
 22 24  1  0  0  0
 22 50  1  0  0  0
 23 25  2  0  0  0
 23 51  1  0  0  0
 24 26  2  0  0  0
 25 26  1  0  0  0
 25 52  1  0  0  0
 53 54  1  0  0  0
M  CHG  1  53   1
M  END
> <LID>
L004345

> <PC_CID>
19896747

> <Names>


> <CAS_Numbers>


$$$$
44209324
                    3D
 Structure written by MMmdl.
 53 56  0  0  1  0            999 V2000
    6.2621   -2.1479    0.9039 Cl  0  0  0  0  0  0
    7.7502    0.2271   -0.6179 Cl  0  0  0  0  0  0
   -3.4664   -5.0687    1.6059 O   0  0  0  0  0  0
    1.4102   -0.1911   -1.1237 O   0  0  0  0  0  0
   -0.3911    0.4614    0.0842 N   0  0  0  0  0  0
   -1.3432    0.0899   -0.9911 C   0  0  1  0  0  0
   -1.6609   -1.4309   -0.9626 C   0  0  0  0  0  0
   -2.0845   -3.3264    0.5918 C   0  0  0  0  0  0
   -3.7493   -1.6273    0.4291 C   0  0  0  0  0  0
   -3.1931   -3.6837    1.5780 C   0  0  1  0  0  0
   -4.3797   -2.8802    1.0524 C   0  0  0  0  0  0
   -2.5889    0.9774   -1.0694 C   0  0  0  0  0  0
   -0.9986    0.9894    1.3189 C   0  0  0  0  0  0
   -1.8631    2.2190    1.0272 C   0  0  0  0  0  0
   -2.8395    1.9829   -0.1059 C   0  0  0  0  0  0
    0.9482    0.3170   -0.0998 C   0  0  0  0  0  0
   -3.4964    0.8094   -2.1396 C   0  0  0  0  0  0
   -3.9950    2.7855   -0.2035 C   0  0  0  0  0  0
    1.9204    0.7994    0.9956 C   0  0  0  0  0  0
   -4.6500    1.6104   -2.2334 C   0  0  0  0  0  0
   -4.9018    2.5968   -1.2627 C   0  0  0  0  0  0
    3.3812    0.6502    0.5947 C   0  0  0  0  0  0
    4.0824   -0.5369    0.8951 C   0  0  0  0  0  0
    4.0438    1.6989   -0.0769 C   0  0  0  0  0  0
    5.4342   -0.6797    0.5242 C   0  0  0  0  0  0
    5.3948    1.5588   -0.4480 C   0  0  0  0  0  0
    6.0932    0.3721   -0.1500 C   0  0  0  0  0  0
   -0.8591    0.2852   -1.9502 H   0  0  0  0  0  0
   -2.2666   -1.7307   -1.8184 H   0  0  0  0  0  0
   -0.7189   -1.9694   -1.0772 H   0  0  0  0  0  0
   -1.0873   -3.5163    0.9903 H   0  0  0  0  0  0
   -2.1996   -3.9049   -0.3272 H   0  0  0  0  0  0
   -4.2182   -1.4174   -0.5326 H   0  0  0  0  0  0
   -3.8952   -0.7538    1.0654 H   0  0  0  0  0  0
   -2.9275   -3.3407    2.5792 H   0  0  0  0  0  0
   -5.1063   -2.6461    1.8311 H   0  0  0  0  0  0
   -4.8993   -3.4432    0.2750 H   0  0  0  0  0  0
   -1.6242    0.2135    1.7568 H   0  0  0  0  0  0
   -0.2874    1.2436    2.1022 H   0  0  0  0  0  0
   -2.4072    2.5102    1.9266 H   0  0  0  0  0  0
   -1.2268    3.0625    0.7567 H   0  0  0  0  0  0
   -3.3134    0.0622   -2.8977 H   0  0  0  0  0  0
   -4.1868    3.5532    0.5320 H   0  0  0  0  0  0
   -2.7174   -5.5229    1.9617 H   0  0  0  0  0  0
    1.7273    1.8493    1.2196 H   0  0  0  0  0  0
    1.7484    0.2320    1.9111 H   0  0  0  0  0  0
   -5.3401    1.4705   -3.0525 H   0  0  0  0  0  0
   -5.7853    3.2141   -1.3351 H   0  0  0  0  0  0
    3.5819   -1.3449    1.4084 H   0  0  0  0  0  0
    3.5170    2.6121   -0.3129 H   0  0  0  0  0  0
    5.8959    2.3648   -0.9637 H   0  0  0  0  0  0
   -2.2949   -1.8946    0.2974 N   0  3  2  0  0  0
   -1.8461   -1.3970    1.0528 H   0  0  0  0  0  0
  1 25  1  0  0  0
  2 27  1  0  0  0
  3 10  1  0  0  0
  3 44  1  0  0  0
  4 16  2  0  0  0
  5  6  1  0  0  0
  5 13  1  0  0  0
  5 16  1  0  0  0
  6  7  1  0  0  0
  6 12  1  0  0  0
  6 28  1  0  0  0
  7 29  1  0  0  0
  7 30  1  0  0  0
  7 52  1  0  0  0
  8 10  1  0  0  0
  8 31  1  0  0  0
  8 32  1  0  0  0
  8 52  1  0  0  0
  9 11  1  0  0  0
  9 33  1  0  0  0
  9 34  1  0  0  0
  9 52  1  0  0  0
 10 11  1  0  0  0
 10 35  1  0  0  0
 11 36  1  0  0  0
 11 37  1  0  0  0
 12 15  1  0  0  0
 12 17  2  0  0  0
 13 14  1  0  0  0
 13 38  1  0  0  0
 13 39  1  0  0  0
 14 15  1  0  0  0
 14 40  1  0  0  0
 14 41  1  0  0  0
 15 18  2  0  0  0
 16 19  1  0  0  0
 17 20  1  0  0  0
 17 42  1  0  0  0
 18 21  1  0  0  0
 18 43  1  0  0  0
 19 22  1  0  0  0
 19 45  1  0  0  0
 19 46  1  0  0  0
 20 21  2  0  0  0
 20 47  1  0  0  0
 21 48  1  0  0  0
 22 23  2  0  0  0
 22 24  1  0  0  0
 23 25  1  0  0  0
 23 49  1  0  0  0
 24 26  2  0  0  0
 24 50  1  0  0  0
 25 27  2  0  0  0
 26 27  1  0  0  0
 26 51  1  0  0  0
 52 53  1  0  0  0
M  CHG  1  52   1
M  END
> <LID>
L003144

> <PC_CID>
44209324

> <Names>


> <CAS_Numbers>


$$$$
44209322
                    3D
 Structure written by MMmdl.
 52 54  0  0  1  0            999 V2000
    6.5673    0.7611   -2.3033 Cl  0  0  0  0  0  0
    6.6974    2.9816   -0.0181 Cl  0  0  0  0  0  0
    1.2666   -0.2534   -0.8891 O   0  0  0  0  0  0
   -6.1914    3.1174   -0.3406 O   0  0  0  0  0  0
    0.3076   -2.0872    0.0470 N   0  0  0  0  0  0
   -4.8145    3.0913   -0.0841 N   0  0  0  0  0  0
   -1.0365   -1.7044   -0.4776 C   0  0  1  0  0  0
   -2.0190   -2.8910   -0.6579 C   0  0  0  0  0  0
   -1.6438   -0.5642    0.3858 C   0  0  0  0  0  0
   -1.3533   -4.2603   -0.6330 C   0  0  0  0  0  0
    0.4946   -3.3404    0.8167 C   0  0  0  0  0  0
   -0.6320   -4.3761    0.7014 C   0  0  0  0  0  0
   -4.1222   -0.4764   -0.0711 C   0  0  0  0  0  0
   -2.9095    1.5561    0.1249 C   0  0  0  0  0  0
   -5.1284    0.6360   -0.3618 C   0  0  0  0  0  0
   -4.3582    1.9090   -0.1052 C   0  0  0  0  0  0
    1.3717   -1.2732   -0.2029 C   0  0  0  0  0  0
    2.7501   -1.6182    0.4018 C   0  0  0  0  0  0
    3.7420   -0.4690    0.2908 C   0  0  0  0  0  0
    4.6070   -0.3817   -0.8205 C   0  0  0  0  0  0
    3.8042    0.5144    1.3003 C   0  0  0  0  0  0
    5.5251    0.6818   -0.9275 C   0  0  0  0  0  0
    4.7213    1.5777    1.1959 C   0  0  0  0  0  0
    5.5826    1.6655    0.0845 C   0  0  0  0  0  0
   -6.6158    4.4678   -0.2972 C   0  0  0  0  0  0
   -0.8833   -1.3154   -1.4865 H   0  0  0  0  0  0
   -2.5783   -2.7727   -1.5866 H   0  0  0  0  0  0
   -2.7603   -2.8819    0.1417 H   0  0  0  0  0  0
   -1.9282   -0.9305    1.3734 H   0  0  0  0  0  0
   -0.8750    0.1874    0.5682 H   0  0  0  0  0  0
   -0.6573   -4.3739   -1.4654 H   0  0  0  0  0  0
   -2.1028   -5.0464   -0.7296 H   0  0  0  0  0  0
    0.6655   -3.1058    1.8682 H   0  0  0  0  0  0
    1.3947   -3.8425    0.4599 H   0  0  0  0  0  0
   -1.3451   -4.2336    1.5148 H   0  0  0  0  0  0
   -0.2279   -5.3810    0.8293 H   0  0  0  0  0  0
   -4.2316   -0.8079    0.9631 H   0  0  0  0  0  0
   -4.2865   -1.3347   -0.7211 H   0  0  0  0  0  0
   -2.2480    2.1846   -0.4726 H   0  0  0  0  0  0
   -2.6740    1.6995    1.1809 H   0  0  0  0  0  0
   -6.0101    0.5641    0.2762 H   0  0  0  0  0  0
   -5.4492    0.6155   -1.4041 H   0  0  0  0  0  0
    2.6478   -1.8772    1.4561 H   0  0  0  0  0  0
    3.1609   -2.4907   -0.1075 H   0  0  0  0  0  0
    4.5645   -1.1303   -1.5982 H   0  0  0  0  0  0
    3.1468    0.4579    2.1556 H   0  0  0  0  0  0
    4.7631    2.3285    1.9714 H   0  0  0  0  0  0
   -7.6867    4.5198   -0.4937 H   0  0  0  0  0  0
   -6.4341    4.9101    0.6838 H   0  0  0  0  0  0
   -6.1075    5.0686   -1.0532 H   0  0  0  0  0  0
   -2.7864    0.1322   -0.2642 N   0  3  1  0  0  0
   -2.6106    0.1385   -1.2591 H   0  0  0  0  0  0
  1 22  1  0  0  0
  2 24  1  0  0  0
  3 17  2  0  0  0
  4  6  1  0  0  0
  4 25  1  0  0  0
  5  7  1  0  0  0
  5 11  1  0  0  0
  5 17  1  0  0  0
  6 16  2  0  0  0
  7  8  1  0  0  0
  7  9  1  0  0  0
  7 26  1  0  0  0
  8 10  1  0  0  0
  8 27  1  0  0  0
  8 28  1  0  0  0
  9 29  1  0  0  0
  9 30  1  0  0  0
  9 51  1  0  0  0
 10 12  1  0  0  0
 10 31  1  0  0  0
 10 32  1  0  0  0
 11 12  1  0  0  0
 11 33  1  0  0  0
 11 34  1  0  0  0
 12 35  1  0  0  0
 12 36  1  0  0  0
 13 15  1  0  0  0
 13 37  1  0  0  0
 13 38  1  0  0  0
 13 51  1  0  0  0
 14 16  1  0  0  0
 14 39  1  0  0  0
 14 40  1  0  0  0
 14 51  1  0  0  0
 15 16  1  0  0  0
 15 41  1  0  0  0
 15 42  1  0  0  0
 17 18  1  0  0  0
 18 19  1  0  0  0
 18 43  1  0  0  0
 18 44  1  0  0  0
 19 20  2  0  0  0
 19 21  1  0  0  0
 20 22  1  0  0  0
 20 45  1  0  0  0
 21 23  2  0  0  0
 21 46  1  0  0  0
 22 24  2  0  0  0
 23 24  1  0  0  0
 23 47  1  0  0  0
 25 48  1  0  0  0
 25 49  1  0  0  0
 25 50  1  0  0  0
 51 52  1  0  0  0
M  CHG  1  51   1
M  END
> <LID>
L003139

> <PC_CID>
44209322

> <Names>


> <CAS_Numbers>


$$$$
44209323
                    3D
 Structure written by MMmdl.
 53 55  0  0  1  0            999 V2000
    6.7578    0.5998   -1.6812 Cl  0  0  0  0  0  0
    7.1032    2.4331    0.9052 Cl  0  0  0  0  0  0
    1.3400    0.0219   -0.3603 O   0  0  0  0  0  0
   -2.9190    3.6355   -2.2459 O   0  0  0  0  0  0
    0.2472   -1.9299    0.0256 N   0  0  0  0  0  0
   -5.0530    3.2002   -2.7367 N   0  0  0  0  0  0
   -1.0295   -1.4106   -0.5281 C   0  0  1  0  0  0
   -1.8492   -2.4733   -1.3184 C   0  0  0  0  0  0
   -1.8368   -0.7336    0.6090 C   0  0  0  0  0  0
   -1.4384   -3.9285   -1.0768 C   0  0  0  0  0  0
    0.2545   -3.2734    0.6448 C   0  0  0  0  0  0
   -1.0046   -4.1080    0.3716 C   0  0  0  0  0  0
   -4.0532    0.1574    1.2270 C   0  0  0  0  0  0
   -2.7869    1.2276   -0.5891 C   0  0  0  0  0  0
    1.3514   -1.1367    0.0620 C   0  0  0  0  0  0
   -5.4068    0.6221    0.6654 C   0  0  0  0  0  0
   -4.0613    1.9740   -0.9793 C   0  0  0  0  0  0
    2.6598   -1.7032    0.6533 C   0  0  0  0  0  0
   -5.2474    1.6915   -0.3959 C   0  0  0  0  0  0
    3.7755   -0.6693    0.7106 C   0  0  0  0  0  0
   -3.9463    3.0042   -2.0110 C   0  0  0  0  0  0
    4.6605   -0.5186   -0.3779 C   0  0  0  0  0  0
    3.9330    0.1426    1.8534 C   0  0  0  0  0  0
    5.6936    0.4385   -0.3296 C   0  0  0  0  0  0
    4.9649    1.0992    1.9043 C   0  0  0  0  0  0
    5.8465    1.2506    0.8159 C   0  0  0  0  0  0
   -0.7955   -0.6460   -1.2686 H   0  0  0  0  0  0
   -1.7729   -2.2707   -2.3876 H   0  0  0  0  0  0
   -2.9100   -2.3756   -1.0884 H   0  0  0  0  0  0
   -2.1103   -1.4980    1.3366 H   0  0  0  0  0  0
   -1.2161   -0.0172    1.1498 H   0  0  0  0  0  0
   -0.6132   -4.1974   -1.7380 H   0  0  0  0  0  0
   -2.2631   -4.5989   -1.3209 H   0  0  0  0  0  0
    0.4010   -3.1864    1.7223 H   0  0  0  0  0  0
    1.1024   -3.8377    0.2543 H   0  0  0  0  0  0
   -1.8133   -3.8133    1.0409 H   0  0  0  0  0  0
   -0.8035   -5.1593    0.5803 H   0  0  0  0  0  0
   -3.6627    0.8948    1.9304 H   0  0  0  0  0  0
   -4.2012   -0.7665    1.7877 H   0  0  0  0  0  0
   -2.2188    1.0133   -1.4943 H   0  0  0  0  0  0
   -2.1743    1.8860    0.0290 H   0  0  0  0  0  0
   -6.0330    1.0035    1.4725 H   0  0  0  0  0  0
   -5.9402   -0.2181    0.2195 H   0  0  0  0  0  0
    2.4830   -2.0769    1.6623 H   0  0  0  0  0  0
    2.9956   -2.5477    0.0506 H   0  0  0  0  0  0
   -6.1557    2.2106   -0.6669 H   0  0  0  0  0  0
    4.5455   -1.1359   -1.2570 H   0  0  0  0  0  0
    3.2610    0.0364    2.6926 H   0  0  0  0  0  0
   -5.0444    3.8884   -3.4757 H   0  0  0  0  0  0
   -5.8866    2.6620   -2.5528 H   0  0  0  0  0  0
    5.0793    1.7190    2.7815 H   0  0  0  0  0  0
   -3.0664   -0.0433    0.1372 N   0  3  1  0  0  0
   -3.5099   -0.6673   -0.5216 H   0  0  0  0  0  0
  1 24  1  0  0  0
  2 26  1  0  0  0
  3 15  2  0  0  0
  4 21  2  0  0  0
  5  7  1  0  0  0
  5 11  1  0  0  0
  5 15  1  0  0  0
  6 21  1  0  0  0
  6 49  1  0  0  0
  6 50  1  0  0  0
  7  8  1  0  0  0
  7  9  1  0  0  0
  7 27  1  0  0  0
  8 10  1  0  0  0
  8 28  1  0  0  0
  8 29  1  0  0  0
  9 30  1  0  0  0
  9 31  1  0  0  0
  9 52  1  0  0  0
 10 12  1  0  0  0
 10 32  1  0  0  0
 10 33  1  0  0  0
 11 12  1  0  0  0
 11 34  1  0  0  0
 11 35  1  0  0  0
 12 36  1  0  0  0
 12 37  1  0  0  0
 13 16  1  0  0  0
 13 38  1  0  0  0
 13 39  1  0  0  0
 13 52  1  0  0  0
 14 17  1  0  0  0
 14 40  1  0  0  0
 14 41  1  0  0  0
 14 52  1  0  0  0
 15 18  1  0  0  0
 16 19  1  0  0  0
 16 42  1  0  0  0
 16 43  1  0  0  0
 17 19  2  0  0  0
 17 21  1  0  0  0
 18 20  1  0  0  0
 18 44  1  0  0  0
 18 45  1  0  0  0
 19 46  1  0  0  0
 20 22  2  0  0  0
 20 23  1  0  0  0
 22 24  1  0  0  0
 22 47  1  0  0  0
 23 25  2  0  0  0
 23 48  1  0  0  0
 24 26  2  0  0  0
 25 26  1  0  0  0
 25 51  1  0  0  0
 52 53  1  0  0  0
M  CHG  1  52   1
M  END
> <LID>
L003141

> <PC_CID>
44209323

> <Names>


> <CAS_Numbers>


$$$$
44215693
                    3D
 Structure written by MMmdl.
 72 78  0  0  1  0            999 V2000
   -0.3024   -0.8452   -0.1938 O   0  0  0  0  0  0
    3.6963   -1.4711    1.6850 O   0  0  0  0  0  0
    3.2053   -3.8826    0.4764 O   0  0  0  0  0  0
   -1.1561    4.2019    0.9020 O   0  0  0  0  0  0
    6.5544   -0.7020    1.4527 O   0  0  0  0  0  0
    1.9585   -0.3988    0.4711 C   0  0  2  0  0  0
    0.9884   -0.5126   -0.7299 C   0  0  2  0  0  0
    0.9589    0.9042   -1.3775 C   0  0  2  0  0  0
    2.3660   -1.7262    1.1864 C   0  0  1  0  0  0
    1.3601    0.6048    1.4923 C   0  0  0  0  0  0
    3.3072    0.0979    0.0445 C   0  0  0  0  0  0
    1.4466   -1.6408   -1.6865 C   0  0  0  0  0  0
    2.3653    1.3823   -1.8575 C   0  0  0  0  0  0
    1.0786    1.9853    0.8679 C   0  0  0  0  0  0
    3.5669    1.0104   -0.9875 C   0  0  0  0  0  0
    1.5023   -2.9959   -0.9614 C   0  0  0  0  0  0
    2.4373   -2.9500    0.2478 C   0  0  0  0  0  0
    4.2359   -0.5251    0.8559 C   0  0  0  0  0  0
   -0.0461    3.1703   -1.0207 C   0  0  0  0  0  0
    4.9198    1.3751   -1.1536 C   0  0  0  0  0  0
    5.5803   -0.1391    0.6822 C   0  0  0  0  0  0
   -1.3452    3.7690   -0.4416 C   0  0  1  0  0  0
   -1.3968   -1.0407   -1.0849 C   0  0  0  0  0  0
    5.9149    0.8176   -0.3099 C   0  0  0  0  0  0
   -2.5559    2.8213   -0.4261 C   0  0  0  0  0  0
   -2.6719   -1.1461   -0.2430 C   0  0  0  0  0  0
   -2.8433    2.6407    1.0521 C   0  0  0  0  0  0
   -2.3453    3.9552    1.6357 C   0  0  0  0  0  0
   -3.9415   -1.2387   -1.1000 C   0  0  0  0  0  0
   -5.1999   -1.2117   -0.2546 C   0  0  0  0  0  0
   -5.7996    0.0208    0.0803 C   0  0  0  0  0  0
   -5.7711   -2.4158    0.2082 C   0  0  0  0  0  0
   -6.9642    0.0487    0.8720 C   0  0  0  0  0  0
   -6.9362   -2.3870    0.9995 C   0  0  0  0  0  0
   -7.5328   -1.1551    1.3314 C   0  0  0  0  0  0
    0.3213    0.8745   -2.2604 H   0  0  0  0  0  0
    1.6833   -1.9622    2.0029 H   0  0  0  0  0  0
    2.0304    0.7282    2.3442 H   0  0  0  0  0  0
    0.4349    0.2063    1.9104 H   0  0  0  0  0  0
    2.4321   -1.4225   -2.0985 H   0  0  0  0  0  0
    0.7905   -1.7094   -2.5537 H   0  0  0  0  0  0
    2.3796    2.4578   -2.0325 H   0  0  0  0  0  0
    2.5583    0.9352   -2.8332 H   0  0  0  0  0  0
    0.5123    2.5757    1.5854 H   0  0  0  0  0  0
    2.0096    2.5283    0.7031 H   0  0  0  0  0  0
    1.8460   -3.7704   -1.6475 H   0  0  0  0  0  0
    0.5096   -3.2919   -0.6225 H   0  0  0  0  0  0
   -0.2071    3.0372   -2.0911 H   0  0  0  0  0  0
    0.7754    3.8820   -0.9288 H   0  0  0  0  0  0
    5.2017    2.0651   -1.9354 H   0  0  0  0  0  0
   -1.6061    4.6527   -1.0258 H   0  0  0  0  0  0
   -1.4972   -0.2122   -1.7835 H   0  0  0  0  0  0
   -1.2693   -1.9519   -1.6689 H   0  0  0  0  0  0
    6.9475    1.1033   -0.4478 H   0  0  0  0  0  0
   -2.3841    1.8758   -0.9390 H   0  0  0  0  0  0
   -3.4063    3.3032   -0.9104 H   0  0  0  0  0  0
   -2.6064   -2.0109    0.4184 H   0  0  0  0  0  0
   -2.7411   -0.2718    0.4033 H   0  0  0  0  0  0
   -3.8951    2.4481    1.2654 H   0  0  0  0  0  0
   -2.2548    1.8150    1.4536 H   0  0  0  0  0  0
   -3.0610    4.7587    1.4547 H   0  0  0  0  0  0
   -2.1524    3.8969    2.7070 H   0  0  0  0  0  0
    6.2108   -1.3405    2.0592 H   0  0  0  0  0  0
   -3.9775   -0.4082   -1.8065 H   0  0  0  0  0  0
   -3.9254   -2.1504   -1.6986 H   0  0  0  0  0  0
   -5.3675    0.9476   -0.2677 H   0  0  0  0  0  0
   -5.3170   -3.3638   -0.0405 H   0  0  0  0  0  0
   -7.4213    0.9935    1.1271 H   0  0  0  0  0  0
   -7.3717   -3.3102    1.3526 H   0  0  0  0  0  0
   -8.4259   -1.1337    1.9384 H   0  0  0  0  0  0
    0.3301    1.8630   -0.4130 N   0  3  1  0  0  0
   -0.5470    1.4245   -0.1687 H   0  0  0  0  0  0
  1  7  1  0  0  0
  1 23  1  0  0  0
  2  9  1  0  0  0
  2 18  1  0  0  0
  3 17  2  0  0  0
  4 22  1  0  0  0
  4 28  1  0  0  0
  5 21  1  0  0  0
  5 63  1  0  0  0
  6  7  1  0  0  0
  6  9  1  0  0  0
  6 10  1  0  0  0
  6 11  1  0  0  0
  7  8  1  0  0  0
  7 12  1  0  0  0
  8 13  1  0  0  0
  8 36  1  0  0  0
  8 71  1  0  0  0
  9 17  1  0  0  0
  9 37  1  0  0  0
 10 14  1  0  0  0
 10 38  1  0  0  0
 10 39  1  0  0  0
 11 15  2  0  0  0
 11 18  1  0  0  0
 12 16  1  0  0  0
 12 40  1  0  0  0
 12 41  1  0  0  0
 13 15  1  0  0  0
 13 42  1  0  0  0
 13 43  1  0  0  0
 14 44  1  0  0  0
 14 45  1  0  0  0
 14 71  1  0  0  0
 15 20  1  0  0  0
 16 17  1  0  0  0
 16 46  1  0  0  0
 16 47  1  0  0  0
 18 21  2  0  0  0
 19 22  1  0  0  0
 19 48  1  0  0  0
 19 49  1  0  0  0
 19 71  1  0  0  0
 20 24  2  0  0  0
 20 50  1  0  0  0
 21 24  1  0  0  0
 22 25  1  0  0  0
 22 51  1  0  0  0
 23 26  1  0  0  0
 23 52  1  0  0  0
 23 53  1  0  0  0
 24 54  1  0  0  0
 25 27  1  0  0  0
 25 55  1  0  0  0
 25 56  1  0  0  0
 26 29  1  0  0  0
 26 57  1  0  0  0
 26 58  1  0  0  0
 27 28  1  0  0  0
 27 59  1  0  0  0
 27 60  1  0  0  0
 28 61  1  0  0  0
 28 62  1  0  0  0
 29 30  1  0  0  0
 29 64  1  0  0  0
 29 65  1  0  0  0
 30 31  2  0  0  0
 30 32  1  0  0  0
 31 33  1  0  0  0
 31 66  1  0  0  0
 32 34  2  0  0  0
 32 67  1  0  0  0
 33 35  2  0  0  0
 33 68  1  0  0  0
 34 35  1  0  0  0
 34 69  1  0  0  0
 35 70  1  0  0  0
 71 72  1  0  0  0
M  CHG  1  71   1
M  END
> <LID>
L022106

> <PC_CID>
44215693

> <Names>


> <CAS_Numbers>


$$$$
9801830
                    3D
 Structure written by MMmdl.
 51 54  0  0  1  0            999 V2000
   -6.7427   -1.6217   -0.0348 Cl  0  0  0  0  0  0
   -7.4509    1.3054   -1.0823 Cl  0  0  0  0  0  0
   -0.7873    0.9681   -0.6863 O   0  0  0  0  0  0
    0.4495    0.1476    1.0367 N   0  0  0  0  0  0
    3.8548    2.7919   -0.1789 C   0  0  0  0  0  0
    5.0907    0.7631    0.2336 C   0  0  0  0  0  0
    2.8200    1.0331    1.3531 C   0  0  0  0  0  0
    4.7386    2.4825   -1.3900 C   0  0  0  0  0  0
    5.8323    1.5858   -0.8189 C   0  0  0  0  0  0
    1.7308    0.4980    0.3650 C   0  0  1  0  0  0
    2.2022   -0.6354   -0.5435 C   0  0  0  0  0  0
   -0.7469    0.4486    0.4310 C   0  0  0  0  0  0
    0.4914   -0.5459    2.2653 C   0  0  0  0  0  0
    2.5450   -1.9007   -0.0145 C   0  0  0  0  0  0
    2.2962   -0.4235   -1.9370 C   0  0  0  0  0  0
   -1.9815    0.1199    1.1782 C   0  0  0  0  0  0
   -0.6193   -0.8988    2.9238 C   0  0  0  0  0  0
   -1.8922   -0.5477    2.3507 C   0  0  0  0  0  0
    2.9835   -2.9332   -0.8656 C   0  0  0  0  0  0
    2.7353   -1.4561   -2.7875 C   0  0  0  0  0  0
   -3.3188    0.4026    0.6123 C   0  0  0  0  0  0
    3.0801   -2.7112   -2.2522 C   0  0  0  0  0  0
   -4.2951   -0.6168    0.5528 C   0  0  0  0  0  0
   -3.6415    1.6990    0.1540 C   0  0  0  0  0  0
   -5.5756   -0.3493    0.0290 C   0  0  0  0  0  0
   -4.9206    1.9674   -0.3696 C   0  0  0  0  0  0
   -5.8894    0.9471   -0.4350 C   0  0  0  0  0  0
    4.2167    3.6927    0.3180 H   0  0  0  0  0  0
    2.8244    2.9915   -0.4658 H   0  0  0  0  0  0
    4.6731   -0.1190   -0.2418 H   0  0  0  0  0  0
    5.7525    0.4186    1.0288 H   0  0  0  0  0  0
    3.1760    0.2448    2.0152 H   0  0  0  0  0  0
    2.3619    1.7859    1.9960 H   0  0  0  0  0  0
    5.1319    3.3806   -1.8673 H   0  0  0  0  0  0
    4.1649    1.9317   -2.1363 H   0  0  0  0  0  0
    6.3140    0.9677   -1.5772 H   0  0  0  0  0  0
    6.6011    2.1961   -0.3428 H   0  0  0  0  0  0
    1.5249    1.3396   -0.2914 H   0  0  0  0  0  0
    1.4679   -0.8015    2.6401 H   0  0  0  0  0  0
    2.4836   -2.0888    1.0463 H   0  0  0  0  0  0
    2.0316    0.5332   -2.3633 H   0  0  0  0  0  0
   -0.5629   -1.4402    3.8569 H   0  0  0  0  0  0
   -2.7900   -0.8225    2.8855 H   0  0  0  0  0  0
    3.2467   -3.8966   -0.4542 H   0  0  0  0  0  0
    2.8057   -1.2855   -3.8518 H   0  0  0  0  0  0
    3.4162   -3.5036   -2.9047 H   0  0  0  0  0  0
   -4.0643   -1.6128    0.9020 H   0  0  0  0  0  0
   -2.9117    2.4941    0.2036 H   0  0  0  0  0  0
   -5.1588    2.9608   -0.7204 H   0  0  0  0  0  0
    4.0393    1.6623    0.7651 N   0  3  0  0  0  0
    4.4893    2.0963    1.5587 H   0  0  0  0  0  0
  1 25  1  0  0  0
  2 27  1  0  0  0
  3 12  2  0  0  0
  4 10  1  0  0  0
  4 12  1  0  0  0
  4 13  1  0  0  0
  5  8  1  0  0  0
  5 28  1  0  0  0
  5 29  1  0  0  0
  5 50  1  0  0  0
  6  9  1  0  0  0
  6 30  1  0  0  0
  6 31  1  0  0  0
  6 50  1  0  0  0
  7 10  1  0  0  0
  7 32  1  0  0  0
  7 33  1  0  0  0
  7 50  1  0  0  0
  8  9  1  0  0  0
  8 34  1  0  0  0
  8 35  1  0  0  0
  9 36  1  0  0  0
  9 37  1  0  0  0
 10 11  1  0  0  0
 10 38  1  0  0  0
 11 14  2  0  0  0
 11 15  1  0  0  0
 12 16  1  0  0  0
 13 17  2  0  0  0
 13 39  1  0  0  0
 14 19  1  0  0  0
 14 40  1  0  0  0
 15 20  2  0  0  0
 15 41  1  0  0  0
 16 18  2  0  0  0
 16 21  1  0  0  0
 17 18  1  0  0  0
 17 42  1  0  0  0
 18 43  1  0  0  0
 19 22  2  0  0  0
 19 44  1  0  0  0
 20 22  1  0  0  0
 20 45  1  0  0  0
 21 23  2  0  0  0
 21 24  1  0  0  0
 22 46  1  0  0  0
 23 25  1  0  0  0
 23 47  1  0  0  0
 24 26  2  0  0  0
 24 48  1  0  0  0
 25 27  2  0  0  0
 26 27  1  0  0  0
 26 49  1  0  0  0
 50 51  1  0  0  0
M  CHG  1  50   1
M  END
> <LID>
L021887

> <PC_CID>
9801830

> <Names>


> <CAS_Numbers>


$$$$
9822764
                    3D
 Structure written by MMmdl.
 49 52  0  0  1  0            999 V2000
    6.2291    1.7644   -1.2578 Cl  0  0  0  0  0  0
    7.3542    0.3140    1.3499 Cl  0  0  0  0  0  0
   -4.0657   -0.5748    1.5525 S   0  0  0  0  0  0
    1.0389    0.5865    0.4933 O   0  0  0  0  0  0
   -0.5280   -0.6739   -0.5489 N   0  0  0  0  0  0
   -1.6595    0.0242    0.1089 C   0  0  1  0  0  0
   -2.1210    1.1990   -0.7889 C   0  0  0  0  0  0
   -3.8461    2.9728   -1.0954 C   0  0  0  0  0  0
   -2.6924    2.8556    0.9924 C   0  0  0  0  0  0
   -3.9612    4.3288   -0.3863 C   0  0  0  0  0  0
   -3.6705    4.0219    1.0788 C   0  0  0  0  0  0
   -2.7542   -0.9480    0.4597 C   0  0  0  0  0  0
   -0.9210   -1.7086   -1.5318 C   0  0  0  0  0  0
   -1.7831   -2.8135   -0.8899 C   0  0  0  0  0  0
   -2.8296   -2.2422    0.0154 C   0  0  0  0  0  0
    0.7586   -0.3506   -0.2574 C   0  0  0  0  0  0
   -3.9674   -2.9388    0.5204 C   0  0  0  0  0  0
    1.9015   -1.1804   -0.8751 C   0  0  0  0  0  0
   -4.7338   -2.1711    1.3565 C   0  0  0  0  0  0
    3.2686   -0.8020   -0.3231 C   0  0  0  0  0  0
    4.0430    0.1893   -0.9622 C   0  0  0  0  0  0
    3.7709   -1.4423    0.8291 C   0  0  0  0  0  0
    5.3083    0.5437   -0.4533 C   0  0  0  0  0  0
    5.0353   -1.0905    1.3391 C   0  0  0  0  0  0
    5.8066   -0.0986    0.7018 C   0  0  0  0  0  0
   -1.3188    0.4389    1.0585 H   0  0  0  0  0  0
   -1.2711    1.8233   -1.0700 H   0  0  0  0  0  0
   -2.5292    0.7981   -1.7175 H   0  0  0  0  0  0
   -4.8311    2.5644   -1.3241 H   0  0  0  0  0  0
   -3.3071    3.0815   -2.0380 H   0  0  0  0  0  0
   -1.6868    3.2347    0.8015 H   0  0  0  0  0  0
   -2.6632    2.2707    1.9121 H   0  0  0  0  0  0
   -3.2021    5.0100   -0.7734 H   0  0  0  0  0  0
   -4.9339    4.7997   -0.5319 H   0  0  0  0  0  0
   -4.5852    3.7046    1.5819 H   0  0  0  0  0  0
   -3.2656    4.8772    1.6207 H   0  0  0  0  0  0
   -0.0926   -2.1661   -2.0693 H   0  0  0  0  0  0
   -1.5098   -1.2141   -2.3047 H   0  0  0  0  0  0
   -1.1383   -3.4817   -0.3183 H   0  0  0  0  0  0
   -2.2405   -3.4237   -1.6693 H   0  0  0  0  0  0
   -4.1770   -3.9668    0.2631 H   0  0  0  0  0  0
    1.7312   -2.2404   -0.6817 H   0  0  0  0  0  0
    1.9068   -1.0424   -1.9570 H   0  0  0  0  0  0
   -5.6392   -2.4488    1.8762 H   0  0  0  0  0  0
    3.6649    0.6848   -1.8445 H   0  0  0  0  0  0
    3.1865   -2.2023    1.3271 H   0  0  0  0  0  0
    5.4135   -1.5832    2.2228 H   0  0  0  0  0  0
   -3.1568    2.0526   -0.1594 N   0  3  0  0  0  0
   -3.8737    1.4342    0.1941 H   0  0  0  0  0  0
  1 23  1  0  0  0
  2 25  1  0  0  0
  3 12  1  0  0  0
  3 19  1  0  0  0
  4 16  2  0  0  0
  5  6  1  0  0  0
  5 13  1  0  0  0
  5 16  1  0  0  0
  6  7  1  0  0  0
  6 12  1  0  0  0
  6 26  1  0  0  0
  7 27  1  0  0  0
  7 28  1  0  0  0
  7 48  1  0  0  0
  8 10  1  0  0  0
  8 29  1  0  0  0
  8 30  1  0  0  0
  8 48  1  0  0  0
  9 11  1  0  0  0
  9 31  1  0  0  0
  9 32  1  0  0  0
  9 48  1  0  0  0
 10 11  1  0  0  0
 10 33  1  0  0  0
 10 34  1  0  0  0
 11 35  1  0  0  0
 11 36  1  0  0  0
 12 15  2  0  0  0
 13 14  1  0  0  0
 13 37  1  0  0  0
 13 38  1  0  0  0
 14 15  1  0  0  0
 14 39  1  0  0  0
 14 40  1  0  0  0
 15 17  1  0  0  0
 16 18  1  0  0  0
 17 19  2  0  0  0
 17 41  1  0  0  0
 18 20  1  0  0  0
 18 42  1  0  0  0
 18 43  1  0  0  0
 19 44  1  0  0  0
 20 21  2  0  0  0
 20 22  1  0  0  0
 21 23  1  0  0  0
 21 45  1  0  0  0
 22 24  2  0  0  0
 22 46  1  0  0  0
 23 25  2  0  0  0
 24 25  1  0  0  0
 24 47  1  0  0  0
 48 49  1  0  0  0
M  CHG  1  48   1
M  END
> <LID>
L007444

> <PC_CID>
9822764

> <Names>


> <CAS_Numbers>


$$$$
18687593
                    3D
 Structure written by MMmdl.
 58 60  0  0  1  0            999 V2000
    0.5467   -0.9733   -1.3119 O   0  0  0  0  0  0
   -0.2602   -0.9453    2.0650 O   0  0  0  0  0  0
   -0.3101   -0.9503   -0.1887 N   0  0  0  0  0  0
   -2.2817    3.6097    0.0787 C   0  0  0  0  0  0
   -2.6993    2.3448   -1.9051 C   0  0  0  0  0  0
   -2.7123    4.5658   -1.0412 C   0  0  0  0  0  0
   -3.4307    3.6751   -2.0487 C   0  0  0  0  0  0
   -1.2326    1.3584   -0.1336 C   0  0  0  0  0  0
   -1.5000   -0.1328   -0.4589 C   0  0  2  0  0  0
   -2.7694   -0.7128    0.1706 C   0  0  0  0  0  0
    0.2719   -1.2453    0.9972 C   0  0  0  0  0  0
    1.5805   -2.0612    1.0506 C   0  0  0  0  0  0
   -3.4891   -1.7041   -0.5322 C   0  0  0  0  0  0
   -3.2374   -0.2953    1.4391 C   0  0  0  0  0  0
    2.8213   -1.2964    0.5590 C   0  0  0  0  0  0
    3.5533   -1.7642   -0.5704 C   0  0  0  0  0  0
    3.2788   -0.1278    1.2344 C   0  0  0  0  0  0
   -4.6614   -2.2609    0.0144 C   0  0  0  0  0  0
   -4.4093   -0.8525    1.9859 C   0  0  0  0  0  0
   -5.1232   -1.8338    1.2733 C   0  0  0  0  0  0
    4.6731   -1.0444   -1.0361 C   0  0  0  0  0  0
    4.3996    0.5768    0.7490 C   0  0  0  0  0  0
    5.0954    0.1273   -0.3858 C   0  0  0  0  0  0
    3.1860   -3.0472   -1.3016 C   0  0  0  0  0  0
    2.6091    0.4054    2.4915 C   0  0  0  0  0  0
    6.2973    0.8939   -0.8982 C   0  0  0  0  0  0
   -1.2713    3.8472    0.4157 H   0  0  0  0  0  0
   -2.9443    3.6930    0.9408 H   0  0  0  0  0  0
   -3.2976    1.5029   -2.2550 H   0  0  0  0  0  0
   -1.7766    2.3704   -2.4876 H   0  0  0  0  0  0
   -3.3377    5.3833   -0.6810 H   0  0  0  0  0  0
   -1.8292    5.0048   -1.5078 H   0  0  0  0  0  0
   -3.3992    4.0702   -3.0646 H   0  0  0  0  0  0
   -4.4773    3.5583   -1.7633 H   0  0  0  0  0  0
   -0.3482    1.7085   -0.6686 H   0  0  0  0  0  0
   -1.0045    1.4713    0.9268 H   0  0  0  0  0  0
   -1.6696   -0.1885   -1.5360 H   0  0  0  0  0  0
    1.7622   -2.3774    2.0783 H   0  0  0  0  0  0
    1.4113   -2.9866    0.5043 H   0  0  0  0  0  0
   -3.1432   -2.0438   -1.4977 H   0  0  0  0  0  0
   -2.7012    0.4463    2.0116 H   0  0  0  0  0  0
    1.4129   -1.0010   -0.9300 H   0  0  0  0  0  0
   -5.2053   -3.0175   -0.5318 H   0  0  0  0  0  0
   -4.7587   -0.5296    2.9556 H   0  0  0  0  0  0
   -6.0213   -2.2620    1.6939 H   0  0  0  0  0  0
    5.2209   -1.3965   -1.8982 H   0  0  0  0  0  0
    4.7350    1.4699    1.2564 H   0  0  0  0  0  0
    3.8699   -3.2448   -2.1275 H   0  0  0  0  0  0
    3.2401   -3.8994   -0.6237 H   0  0  0  0  0  0
    2.1807   -2.9956   -1.7176 H   0  0  0  0  0  0
    1.7230    0.9856    2.2344 H   0  0  0  0  0  0
    2.3209   -0.4006    3.1656 H   0  0  0  0  0  0
    3.2826    1.0596    3.0459 H   0  0  0  0  0  0
    6.8058    1.4111   -0.0840 H   0  0  0  0  0  0
    7.0150    0.2222   -1.3702 H   0  0  0  0  0  0
    5.9844    1.6349   -1.6340 H   0  0  0  0  0  0
   -2.3840    2.2340   -0.4646 N   0  3  0  0  0  0
   -3.1991    1.8270   -0.0270 H   0  0  0  0  0  0
  1  3  1  0  0  0
  1 42  1  0  0  0
  2 11  2  0  0  0
  3  9  1  0  0  0
  3 11  1  0  0  0
  4  6  1  0  0  0
  4 27  1  0  0  0
  4 28  1  0  0  0
  4 57  1  0  0  0
  5  7  1  0  0  0
  5 29  1  0  0  0
  5 30  1  0  0  0
  5 57  1  0  0  0
  6  7  1  0  0  0
  6 31  1  0  0  0
  6 32  1  0  0  0
  7 33  1  0  0  0
  7 34  1  0  0  0
  8  9  1  0  0  0
  8 35  1  0  0  0
  8 36  1  0  0  0
  8 57  1  0  0  0
  9 10  1  0  0  0
  9 37  1  0  0  0
 10 13  2  0  0  0
 10 14  1  0  0  0
 11 12  1  0  0  0
 12 15  1  0  0  0
 12 38  1  0  0  0
 12 39  1  0  0  0
 13 18  1  0  0  0
 13 40  1  0  0  0
 14 19  2  0  0  0
 14 41  1  0  0  0
 15 16  2  0  0  0
 15 17  1  0  0  0
 16 21  1  0  0  0
 16 24  1  0  0  0
 17 22  2  0  0  0
 17 25  1  0  0  0
 18 20  2  0  0  0
 18 43  1  0  0  0
 19 20  1  0  0  0
 19 44  1  0  0  0
 20 45  1  0  0  0
 21 23  2  0  0  0
 21 46  1  0  0  0
 22 23  1  0  0  0
 22 47  1  0  0  0
 23 26  1  0  0  0
 24 48  1  0  0  0
 24 49  1  0  0  0
 24 50  1  0  0  0
 25 51  1  0  0  0
 25 52  1  0  0  0
 25 53  1  0  0  0
 26 54  1  0  0  0
 26 55  1  0  0  0
 26 56  1  0  0  0
 57 58  1  0  0  0
M  CHG  1  57   1
M  END
> <LID>
L015590

> <PC_CID>
18687593

> <Names>


> <CAS_Numbers>


$$$$
15925345
                    3D
 Structure written by MMmdl.
 62 66  0  0  1  0            999 V2000
    7.5300    1.8508   -0.1302 Cl  0  0  0  0  0  0
   -3.7134    1.8632    1.0740 S   0  0  0  0  0  0
    2.7299    3.7479    0.0840 O   0  0  0  0  0  0
   -1.7911   -0.1750   -0.0133 N   0  0  0  0  0  0
    3.0600    1.5388    0.4793 N   0  0  0  0  0  0
   -2.1388   -2.2910    1.2855 C   0  0  0  0  0  0
   -2.2356   -3.7071    3.3227 C   0  0  0  0  0  0
   -1.0984   -4.5775    1.4143 C   0  0  0  0  0  0
   -1.7513   -5.1086    3.6774 C   0  0  0  0  0  0
   -1.5423   -5.7425    2.3079 C   0  0  0  0  0  0
   -1.1463   -1.4079    0.4861 C   0  0  1  0  0  0
   -0.3648   -2.1656   -0.6083 C   0  0  0  0  0  0
   -1.1938    0.9999    0.3180 C   0  0  0  0  0  0
   -3.0129   -0.2231   -0.6128 C   0  0  0  0  0  0
   -1.9665    2.0460    0.8783 C   0  0  0  0  0  0
   -4.0417    0.6450   -0.1642 C   0  0  0  0  0  0
    0.1967    1.1987    0.1434 C   0  0  0  0  0  0
   -3.3048   -1.1237   -1.6651 C   0  0  0  0  0  0
   -1.3584    3.2531    1.2705 C   0  0  0  0  0  0
    0.8151    2.4080    0.5378 C   0  0  0  0  0  0
   -5.3360    0.5738   -0.7158 C   0  0  0  0  0  0
    0.0254    3.4356    1.0965 C   0  0  0  0  0  0
   -4.5962   -1.1864   -2.2231 C   0  0  0  0  0  0
   -5.6156   -0.3456   -1.7423 C   0  0  0  0  0  0
    2.2863    2.6263    0.3293 C   0  0  0  0  0  0
    4.5122    1.5155    0.3266 C   0  0  0  0  0  0
    5.0209    1.3134   -1.1013 C   0  0  0  0  0  0
    6.4028    1.4547   -1.3799 C   0  0  0  0  0  0
    4.1421    0.9699   -2.1575 C   0  0  0  0  0  0
    6.8862    1.2680   -2.6904 C   0  0  0  0  0  0
    4.6301    0.7845   -3.4650 C   0  0  0  0  0  0
    6.0024    0.9351   -3.7330 C   0  0  0  0  0  0
   -2.8871   -2.7537    0.6405 H   0  0  0  0  0  0
   -2.6894   -1.6336    1.9613 H   0  0  0  0  0  0
   -3.3013   -3.7414    3.0881 H   0  0  0  0  0  0
   -2.0921   -2.9947    4.1357 H   0  0  0  0  0  0
   -0.0167   -4.5936    1.2788 H   0  0  0  0  0  0
   -1.5567   -4.6584    0.4278 H   0  0  0  0  0  0
   -0.8026   -5.0532    4.2132 H   0  0  0  0  0  0
   -2.4595   -5.6591    4.2977 H   0  0  0  0  0  0
   -2.4890   -6.1442    1.9437 H   0  0  0  0  0  0
   -0.8204   -6.5596    2.3268 H   0  0  0  0  0  0
   -0.4013   -1.0913    1.2180 H   0  0  0  0  0  0
    0.0990   -1.4865   -1.3235 H   0  0  0  0  0  0
    0.4385   -2.7550   -0.1678 H   0  0  0  0  0  0
   -0.9917   -2.8595   -1.1651 H   0  0  0  0  0  0
    0.7945    0.4184   -0.3023 H   0  0  0  0  0  0
   -2.5492   -1.7717   -2.0735 H   0  0  0  0  0  0
   -1.9547    4.0475    1.6951 H   0  0  0  0  0  0
   -6.1132    1.2356   -0.3623 H   0  0  0  0  0  0
    0.4763    4.3716    1.3943 H   0  0  0  0  0  0
   -4.8040   -1.8811   -3.0238 H   0  0  0  0  0  0
   -6.6061   -0.3949   -2.1705 H   0  0  0  0  0  0
    2.6108    0.6656    0.7116 H   0  0  0  0  0  0
    4.9329    2.4356    0.7359 H   0  0  0  0  0  0
    4.8978    0.7025    0.9423 H   0  0  0  0  0  0
    3.0842    0.8430   -1.9837 H   0  0  0  0  0  0
    7.9406    1.3789   -2.8970 H   0  0  0  0  0  0
    3.9499    0.5255   -4.2631 H   0  0  0  0  0  0
    6.3773    0.7927   -4.7359 H   0  0  0  0  0  0
   -1.4696   -3.3231    2.1174 N   0  3  0  0  0  0
   -0.6092   -2.9199    2.4599 H   0  0  0  0  0  0
  1 28  1  0  0  0
  2 15  1  0  0  0
  2 16  1  0  0  0
  3 25  2  0  0  0
  4 11  1  0  0  0
  4 13  1  0  0  0
  4 14  1  0  0  0
  5 25  1  0  0  0
  5 26  1  0  0  0
  5 54  1  0  0  0
  6 11  1  0  0  0
  6 33  1  0  0  0
  6 34  1  0  0  0
  6 61  1  0  0  0
  7  9  1  0  0  0
  7 35  1  0  0  0
  7 36  1  0  0  0
  7 61  1  0  0  0
  8 10  1  0  0  0
  8 37  1  0  0  0
  8 38  1  0  0  0
  8 61  1  0  0  0
  9 10  1  0  0  0
  9 39  1  0  0  0
  9 40  1  0  0  0
 10 41  1  0  0  0
 10 42  1  0  0  0
 11 12  1  0  0  0
 11 43  1  0  0  0
 12 44  1  0  0  0
 12 45  1  0  0  0
 12 46  1  0  0  0
 13 15  2  0  0  0
 13 17  1  0  0  0
 14 16  1  0  0  0
 14 18  2  0  0  0
 15 19  1  0  0  0
 16 21  2  0  0  0
 17 20  2  0  0  0
 17 47  1  0  0  0
 18 23  1  0  0  0
 18 48  1  0  0  0
 19 22  2  0  0  0
 19 49  1  0  0  0
 20 22  1  0  0  0
 20 25  1  0  0  0
 21 24  1  0  0  0
 21 50  1  0  0  0
 22 51  1  0  0  0
 23 24  2  0  0  0
 23 52  1  0  0  0
 24 53  1  0  0  0
 26 27  1  0  0  0
 26 55  1  0  0  0
 26 56  1  0  0  0
 27 28  1  0  0  0
 27 29  2  0  0  0
 28 30  2  0  0  0
 29 31  1  0  0  0
 29 57  1  0  0  0
 30 32  1  0  0  0
 30 58  1  0  0  0
 31 32  2  0  0  0
 31 59  1  0  0  0
 32 60  1  0  0  0
 61 62  1  0  0  0
M  CHG  1  61   1
M  END
> <LID>
L003538

> <PC_CID>
15925345

> <Names>


> <CAS_Numbers>


$$$$
10482690
                    3D
 Structure written by MMmdl.
 79 83  0  0  1  0            999 V2000
    2.3209   -0.5522    1.8184 O   0  0  0  0  0  0
    8.3536   -4.5626    2.2649 O   0  0  0  0  0  0
    3.2963    1.9730   -0.4823 N   0  0  0  0  0  0
    4.2070    0.3362    0.9037 N   0  0  0  0  0  0
   -5.2958    1.6122    2.4695 N   0  0  0  0  0  0
    2.1810    1.2847    0.2022 C   0  0  0  0  0  0
    1.3697    2.2498    1.1162 C   0  0  0  0  0  0
    1.2445    0.5497   -0.8018 C   0  0  0  0  0  0
    0.0674    1.6367    1.6686 C   0  0  0  0  0  0
   -0.0511    0.0103   -0.1642 C   0  0  0  0  0  0
    2.8929    0.2460    1.0761 C   0  0  0  0  0  0
    4.5619    1.3741   -0.0395 C   0  0  0  0  0  0
   -2.1062    0.6378    1.0692 C   0  0  0  0  0  0
    3.2639    2.9992   -1.3903 C   0  0  0  0  0  0
    5.2296   -0.4978    1.5278 C   0  0  0  0  0  0
   -3.1761    0.6507   -0.0483 C   0  0  0  0  0  0
    5.3985   -1.8300    0.7797 C   0  0  0  0  0  0
   -4.5907    0.1661    0.3794 C   0  0  0  0  0  0
    4.4741    3.5146   -1.9282 C   0  0  0  0  0  0
    2.0551    3.5946   -1.8379 C   0  0  0  0  0  0
    6.4804   -2.7209    1.4054 C   0  0  0  0  0  0
   -5.5539    0.3925   -0.7977 C   0  0  0  0  0  0
   -4.6425   -1.3175    0.7953 C   0  0  0  0  0  0
    4.4769    4.5679   -2.8627 C   0  0  0  0  0  0
    2.0546    4.6482   -2.7723 C   0  0  0  0  0  0
    6.6466   -4.0563    0.6533 C   0  0  0  0  0  0
    3.2659    5.1377   -3.2873 C   0  0  0  0  0  0
   -4.9888    0.9772    1.5510 C   0  0  0  0  0  0
   -5.4748   -0.4405   -1.9396 C   0  0  0  0  0  0
   -5.7452   -1.7834    1.5511 C   0  0  0  0  0  0
   -6.5149    1.4336   -0.7876 C   0  0  0  0  0  0
   -3.6453   -2.2517    0.4168 C   0  0  0  0  0  0
    7.7227   -4.9648    1.2618 C   0  0  0  0  0  0
   -6.3389   -0.2499   -3.0346 C   0  0  0  0  0  0
   -5.8393   -3.1335    1.9390 C   0  0  0  0  0  0
   -7.3793    1.6243   -1.8831 C   0  0  0  0  0  0
   -3.7387   -3.6021    0.8051 C   0  0  0  0  0  0
   -7.2937    0.7823   -3.0066 C   0  0  0  0  0  0
   -4.8337   -4.0440    1.5689 C   0  0  0  0  0  0
    1.1084    3.1701    0.6022 H   0  0  0  0  0  0
    1.9894    2.5766    1.9531 H   0  0  0  0  0  0
    0.9614    1.1879   -1.6336 H   0  0  0  0  0  0
    1.7799   -0.2788   -1.2691 H   0  0  0  0  0  0
    0.2749    0.8642    2.4095 H   0  0  0  0  0  0
   -0.4844    2.4183    2.1925 H   0  0  0  0  0  0
   -0.6805   -0.3908   -0.9575 H   0  0  0  0  0  0
    0.1568   -0.8274    0.5017 H   0  0  0  0  0  0
    5.1950    2.1157    0.4504 H   0  0  0  0  0  0
    5.1045    0.9376   -0.8797 H   0  0  0  0  0  0
   -2.0175   -0.3436    1.5355 H   0  0  0  0  0  0
   -2.4297    1.3153    1.8597 H   0  0  0  0  0  0
    6.1758    0.0447    1.5405 H   0  0  0  0  0  0
    4.9668   -0.6808    2.5710 H   0  0  0  0  0  0
   -3.2631    1.6800   -0.4003 H   0  0  0  0  0  0
   -2.8408    0.0893   -0.9188 H   0  0  0  0  0  0
    4.4499   -2.3684    0.7713 H   0  0  0  0  0  0
    5.6508   -1.6326   -0.2630 H   0  0  0  0  0  0
    5.4353    3.1177   -1.6404 H   0  0  0  0  0  0
    1.0915    3.2706   -1.4865 H   0  0  0  0  0  0
    7.4290   -2.1816    1.4123 H   0  0  0  0  0  0
    6.2253   -2.9152    2.4484 H   0  0  0  0  0  0
    5.4130    4.9386   -3.2540 H   0  0  0  0  0  0
    1.1194    5.0818   -3.0947 H   0  0  0  0  0  0
    5.7018   -4.6006    0.6483 H   0  0  0  0  0  0
    6.9077   -3.8668   -0.3884 H   0  0  0  0  0  0
    3.2661    5.9458   -4.0041 H   0  0  0  0  0  0
   -4.7461   -1.2360   -1.9844 H   0  0  0  0  0  0
   -6.5358   -1.1049    1.8366 H   0  0  0  0  0  0
   -6.6081    2.1051    0.0522 H   0  0  0  0  0  0
   -2.7956   -1.9585   -0.1787 H   0  0  0  0  0  0
   -6.2680   -0.8961   -3.8972 H   0  0  0  0  0  0
   -6.6863   -3.4709    2.5182 H   0  0  0  0  0  0
   -8.1090    2.4204   -1.8614 H   0  0  0  0  0  0
   -2.9696   -4.3017    0.5122 H   0  0  0  0  0  0
   -7.9571    0.9298   -3.8461 H   0  0  0  0  0  0
   -4.9053   -5.0804    1.8648 H   0  0  0  0  0  0
    7.8962   -6.0672    0.6985 O   0  5  0  0  0  0
   -0.7733    1.0752    0.5804 N   0  3  0  0  0  0
   -0.9395    1.8334   -0.0661 H   0  0  0  0  0  0
  1 11  2  0  0  0
  2 33  2  0  0  0
  3  6  1  0  0  0
  3 12  1  0  0  0
  3 14  1  0  0  0
  4 11  1  0  0  0
  4 12  1  0  0  0
  4 15  1  0  0  0
  5 28  3  0  0  0
  6  7  1  0  0  0
  6  8  1  0  0  0
  6 11  1  0  0  0
  7  9  1  0  0  0
  7 40  1  0  0  0
  7 41  1  0  0  0
  8 10  1  0  0  0
  8 42  1  0  0  0
  8 43  1  0  0  0
  9 44  1  0  0  0
  9 45  1  0  0  0
  9 78  1  0  0  0
 10 46  1  0  0  0
 10 47  1  0  0  0
 10 78  1  0  0  0
 12 48  1  0  0  0
 12 49  1  0  0  0
 13 16  1  0  0  0
 13 50  1  0  0  0
 13 51  1  0  0  0
 13 78  1  0  0  0
 14 19  2  0  0  0
 14 20  1  0  0  0
 15 17  1  0  0  0
 15 52  1  0  0  0
 15 53  1  0  0  0
 16 18  1  0  0  0
 16 54  1  0  0  0
 16 55  1  0  0  0
 17 21  1  0  0  0
 17 56  1  0  0  0
 17 57  1  0  0  0
 18 22  1  0  0  0
 18 23  1  0  0  0
 18 28  1  0  0  0
 19 24  1  0  0  0
 19 58  1  0  0  0
 20 25  2  0  0  0
 20 59  1  0  0  0
 21 26  1  0  0  0
 21 60  1  0  0  0
 21 61  1  0  0  0
 22 29  2  0  0  0
 22 31  1  0  0  0
 23 30  2  0  0  0
 23 32  1  0  0  0
 24 27  2  0  0  0
 24 62  1  0  0  0
 25 27  1  0  0  0
 25 63  1  0  0  0
 26 33  1  0  0  0
 26 64  1  0  0  0
 26 65  1  0  0  0
 27 66  1  0  0  0
 29 34  1  0  0  0
 29 67  1  0  0  0
 30 35  1  0  0  0
 30 68  1  0  0  0
 31 36  2  0  0  0
 31 69  1  0  0  0
 32 37  2  0  0  0
 32 70  1  0  0  0
 33 77  1  0  0  0
 34 38  2  0  0  0
 34 71  1  0  0  0
 35 39  2  0  0  0
 35 72  1  0  0  0
 36 38  1  0  0  0
 36 73  1  0  0  0
 37 39  1  0  0  0
 37 74  1  0  0  0
 38 75  1  0  0  0
 39 76  1  0  0  0
 78 79  1  0  0  0
M  CHG  2  77  -1  78   1
M  END
> <LID>
L022595

> <PC_CID>
10482690

> <Names>


> <CAS_Numbers>


$$$$
55652
                    3D
 Structure written by MMmdl.
 59 62  0  0  1  0            999 V2000
   -5.2326    1.8950   -2.0303 Cl  0  0  0  0  0  0
   -6.7757   -0.8886   -2.2375 Cl  0  0  0  0  0  0
    5.2187   -0.9869   -0.5544 O   0  0  0  0  0  0
   -0.8450   -0.9671    0.1233 O   0  0  0  0  0  0
    0.1768   -0.0117    1.9105 N   0  0  0  0  0  0
    3.7995   -1.0272   -0.3882 C   0  0  2  0  0  0
    1.8199    0.5617    0.0381 C   0  0  1  0  0  0
    3.3167    0.4417   -0.3570 C   0  0  0  0  0  0
    1.5596   -0.1556    1.3928 C   0  0  2  0  0  0
    3.4970   -1.7295    0.9530 C   0  0  0  0  0  0
    2.0114   -1.6301    1.3366 C   0  0  0  0  0  0
    3.2782   -1.8111   -1.6120 C   0  0  0  0  0  0
    4.4285   -1.7471   -2.5923 C   0  0  0  0  0  0
    1.1137    2.5774   -1.2916 C   0  0  0  0  0  0
    1.9727    2.9412    0.9250 C   0  0  0  0  0  0
    5.6203   -1.7953   -1.6514 C   0  0  0  0  0  0
    1.2423    4.0813   -1.0609 C   0  0  0  0  0  0
    2.2762    4.1648    0.0563 C   0  0  0  0  0  0
    0.0658    0.5824    3.2506 C   0  0  0  0  0  0
   -0.9235   -0.4133    1.2207 C   0  0  0  0  0  0
   -2.3185   -0.1488    1.8242 C   0  0  0  0  0  0
   -3.4361   -0.3285    0.8070 C   0  0  0  0  0  0
   -3.7934    0.7353   -0.0483 C   0  0  0  0  0  0
   -4.1218   -1.5576    0.7132 C   0  0  0  0  0  0
   -4.8244    0.5735   -0.9949 C   0  0  0  0  0  0
   -5.1533   -1.7213   -0.2312 C   0  0  0  0  0  0
   -5.5073   -0.6595   -1.0869 C   0  0  0  0  0  0
    1.2492    0.0467   -0.7326 H   0  0  0  0  0  0
    3.5076    0.9009   -1.3262 H   0  0  0  0  0  0
    3.9383    0.9835    0.3548 H   0  0  0  0  0  0
    2.2317    0.3263    2.1032 H   0  0  0  0  0  0
    3.8059   -2.7748    0.9141 H   0  0  0  0  0  0
    4.0964   -1.2713    1.7410 H   0  0  0  0  0  0
    1.8560   -2.1036    2.3067 H   0  0  0  0  0  0
    1.4134   -2.1935    0.6201 H   0  0  0  0  0  0
    3.0934   -2.8538   -1.3499 H   0  0  0  0  0  0
    2.3548   -1.4169   -2.0348 H   0  0  0  0  0  0
    4.4134   -0.8012   -3.1352 H   0  0  0  0  0  0
    4.4221   -2.5620   -3.3166 H   0  0  0  0  0  0
    1.8910    2.2543   -1.9833 H   0  0  0  0  0  0
    0.1518    2.3037   -1.7262 H   0  0  0  0  0  0
    1.2704    3.2109    1.7145 H   0  0  0  0  0  0
    2.8684    2.5649    1.4166 H   0  0  0  0  0  0
    6.5378   -1.4254   -2.1094 H   0  0  0  0  0  0
    5.7953   -2.8139   -1.3019 H   0  0  0  0  0  0
    1.5404    4.6244   -1.9583 H   0  0  0  0  0  0
    0.2906    4.4903   -0.7185 H   0  0  0  0  0  0
    2.2273    5.1017    0.6121 H   0  0  0  0  0  0
    3.2787    4.0772   -0.3652 H   0  0  0  0  0  0
   -0.2899    1.6109    3.1813 H   0  0  0  0  0  0
   -0.6245    0.0222    3.8825 H   0  0  0  0  0  0
    1.0106    0.6004    3.7939 H   0  0  0  0  0  0
   -2.4816   -0.8253    2.6640 H   0  0  0  0  0  0
   -2.3770    0.8680    2.2138 H   0  0  0  0  0  0
   -3.2728    1.6795    0.0175 H   0  0  0  0  0  0
   -3.8562   -2.3798    1.3618 H   0  0  0  0  0  0
   -5.6733   -2.6656   -0.2995 H   0  0  0  0  0  0
    1.2966    1.9581    0.0413 N   0  3  0  0  0  0
    0.3609    1.8842    0.4140 H   0  0  0  0  0  0
  1 25  1  0  0  0
  2 27  1  0  0  0
  3  6  1  0  0  0
  3 16  1  0  0  0
  4 20  2  0  0  0
  5  9  1  0  0  0
  5 19  1  0  0  0
  5 20  1  0  0  0
  6  8  1  0  0  0
  6 10  1  0  0  0
  6 12  1  0  0  0
  7  8  1  0  0  0
  7  9  1  0  0  0
  7 28  1  0  0  0
  7 58  1  0  0  0
  8 29  1  0  0  0
  8 30  1  0  0  0
  9 11  1  0  0  0
  9 31  1  0  0  0
 10 11  1  0  0  0
 10 32  1  0  0  0
 10 33  1  0  0  0
 11 34  1  0  0  0
 11 35  1  0  0  0
 12 13  1  0  0  0
 12 36  1  0  0  0
 12 37  1  0  0  0
 13 16  1  0  0  0
 13 38  1  0  0  0
 13 39  1  0  0  0
 14 17  1  0  0  0
 14 40  1  0  0  0
 14 41  1  0  0  0
 14 58  1  0  0  0
 15 18  1  0  0  0
 15 42  1  0  0  0
 15 43  1  0  0  0
 15 58  1  0  0  0
 16 44  1  0  0  0
 16 45  1  0  0  0
 17 18  1  0  0  0
 17 46  1  0  0  0
 17 47  1  0  0  0
 18 48  1  0  0  0
 18 49  1  0  0  0
 19 50  1  0  0  0
 19 51  1  0  0  0
 19 52  1  0  0  0
 20 21  1  0  0  0
 21 22  1  0  0  0
 21 53  1  0  0  0
 21 54  1  0  0  0
 22 23  2  0  0  0
 22 24  1  0  0  0
 23 25  1  0  0  0
 23 55  1  0  0  0
 24 26  2  0  0  0
 24 56  1  0  0  0
 25 27  2  0  0  0
 26 27  1  0  0  0
 26 57  1  0  0  0
 58 59  1  0  0  0
M  CHG  1  58   1
M  END
> <LID>
L000608

> <PC_CID>
55652

> <Names>
spiradoline

> <CAS_Numbers>
87151-85-7

$$$$
19896753
                    3D
 Structure written by MMmdl.
 51 53  0  0  1  0            999 V2000
   -5.9820    2.2389    1.0793 Cl  0  0  0  0  0  0
   -7.0428   -0.7668    0.9772 Cl  0  0  0  0  0  0
   -0.7535    0.1874    1.3799 O   0  0  0  0  0  0
    1.8234   -4.3500   -1.5933 O   0  0  0  0  0  0
    4.1525    4.0650    1.2513 O   0  0  0  0  0  0
    0.9296    0.7196   -0.0346 N   0  0  0  0  0  0
    2.9391    2.6991   -0.1001 N   0  0  0  0  0  0
    1.9530    0.6971    1.0345 C   0  0  1  0  0  0
    2.2801   -0.7228    1.5649 C   0  0  0  0  0  0
    3.2399    1.4722    0.6535 C   0  0  0  0  0  0
    1.4420    1.1175   -1.3551 C   0  0  0  0  0  0
    2.0813    2.5171   -1.2823 C   0  0  0  0  0  0
    3.6677   -2.7027    0.9803 C   0  0  0  0  0  0
    1.6025   -2.3793   -0.1875 C   0  0  0  0  0  0
    3.6073   -3.8633   -0.0164 C   0  0  0  0  0  0
   -0.3781    0.4804    0.2430 C   0  0  0  0  0  0
    2.2855   -3.6257   -0.7155 C   0  0  0  0  0  0
    3.4364    3.9059    0.2628 C   0  0  0  0  0  0
   -1.4169    0.5615   -0.8925 C   0  0  0  0  0  0
    3.1036    5.1323   -0.5915 C   0  0  0  0  0  0
   -2.8275    0.2353   -0.4237 C   0  0  0  0  0  0
   -3.6706    1.2597    0.0566 C   0  0  0  0  0  0
   -3.3013   -1.0926   -0.4689 C   0  0  0  0  0  0
   -4.9767    0.9617    0.4935 C   0  0  0  0  0  0
   -4.6062   -1.3927   -0.0334 C   0  0  0  0  0  0
   -5.4465   -0.3696    0.4484 C   0  0  0  0  0  0
    1.5346    1.2574    1.8736 H   0  0  0  0  0  0
    3.0806   -0.6263    2.3003 H   0  0  0  0  0  0
    1.4354   -1.1407    2.1138 H   0  0  0  0  0  0
    3.8195    1.6615    1.5584 H   0  0  0  0  0  0
    3.8831    0.8557    0.0241 H   0  0  0  0  0  0
    2.1927    0.3881   -1.6620 H   0  0  0  0  0  0
    0.7015    1.1060   -2.1525 H   0  0  0  0  0  0
    2.6561    2.7065   -2.1899 H   0  0  0  0  0  0
    1.2741    3.2507   -1.2568 H   0  0  0  0  0  0
    4.6715   -2.2843    1.0609 H   0  0  0  0  0  0
    3.3751   -3.0604    1.9694 H   0  0  0  0  0  0
    0.8083   -2.6633    0.5036 H   0  0  0  0  0  0
    1.1831   -1.7835   -0.9973 H   0  0  0  0  0  0
    4.4162   -3.8067   -0.7452 H   0  0  0  0  0  0
    3.6380   -4.8362    0.4746 H   0  0  0  0  0  0
   -1.4106    1.5646   -1.3211 H   0  0  0  0  0  0
   -1.1445   -0.1350   -1.6865 H   0  0  0  0  0  0
    3.6462    6.0071   -0.2315 H   0  0  0  0  0  0
    3.3854    4.9740   -1.6326 H   0  0  0  0  0  0
    2.0386    5.3599   -0.5435 H   0  0  0  0  0  0
   -3.3144    2.2788    0.0952 H   0  0  0  0  0  0
   -2.6647   -1.8853   -0.8342 H   0  0  0  0  0  0
   -4.9628   -2.4117   -0.0688 H   0  0  0  0  0  0
    2.7057   -1.6774    0.5088 N   0  3  1  0  0  0
    3.2017   -1.1487   -0.1947 H   0  0  0  0  0  0
  1 24  1  0  0  0
  2 26  1  0  0  0
  3 16  2  0  0  0
  4 17  2  0  0  0
  5 18  2  0  0  0
  6  8  1  0  0  0
  6 11  1  0  0  0
  6 16  1  0  0  0
  7 10  1  0  0  0
  7 12  1  0  0  0
  7 18  1  0  0  0
  8  9  1  0  0  0
  8 10  1  0  0  0
  8 27  1  0  0  0
  9 28  1  0  0  0
  9 29  1  0  0  0
  9 50  1  0  0  0
 10 30  1  0  0  0
 10 31  1  0  0  0
 11 12  1  0  0  0
 11 32  1  0  0  0
 11 33  1  0  0  0
 12 34  1  0  0  0
 12 35  1  0  0  0
 13 15  1  0  0  0
 13 36  1  0  0  0
 13 37  1  0  0  0
 13 50  1  0  0  0
 14 17  1  0  0  0
 14 38  1  0  0  0
 14 39  1  0  0  0
 14 50  1  0  0  0
 15 17  1  0  0  0
 15 40  1  0  0  0
 15 41  1  0  0  0
 16 19  1  0  0  0
 18 20  1  0  0  0
 19 21  1  0  0  0
 19 42  1  0  0  0
 19 43  1  0  0  0
 20 44  1  0  0  0
 20 45  1  0  0  0
 20 46  1  0  0  0
 21 22  2  0  0  0
 21 23  1  0  0  0
 22 24  1  0  0  0
 22 47  1  0  0  0
 23 25  2  0  0  0
 23 48  1  0  0  0
 24 26  2  0  0  0
 25 26  1  0  0  0
 25 49  1  0  0  0
 50 51  1  0  0  0
M  CHG  1  50   1
M  END
> <LID>
L004339

> <PC_CID>
19896753

> <Names>


> <CAS_Numbers>


$$$$
14476593
                    3D
 Structure written by MMmdl.
 61 65  0  0  1  0            999 V2000
   -0.3096    1.2943    1.9783 O   0  0  0  0  0  0
   -0.3789    0.6037   -0.1828 N   0  0  0  0  0  0
   -2.8350    1.0966    0.1206 C   0  0  2  0  0  0
   -1.7389    0.0178   -0.0920 C   0  0  2  0  0  0
   -4.2174    0.4375    0.2938 C   0  0  0  0  0  0
   -3.4232    3.4430   -0.5498 C   0  0  0  0  0  0
   -3.2302    1.7952   -2.2889 C   0  0  0  0  0  0
   -1.8491   -1.1661    0.8794 C   0  0  0  0  0  0
   -4.2303   -0.4575    1.5387 C   0  0  0  0  0  0
   -3.9087    4.0565   -1.8614 C   0  0  0  0  0  0
   -4.2814    2.8328   -2.6895 C   0  0  0  0  0  0
   -3.0325   -1.3917    1.6311 C   0  0  0  0  0  0
   -0.7753   -2.0800    0.9991 C   0  0  0  0  0  0
   -3.1093   -2.4974    2.5041 C   0  0  0  0  0  0
    0.2484    0.5364   -1.5084 C   0  0  0  0  0  0
    0.2564    1.1321    0.8971 C   0  0  0  0  0  0
   -0.8600   -3.1800    1.8720 C   0  0  0  0  0  0
   -2.0271   -3.3878    2.6275 C   0  0  0  0  0  0
    1.7496    1.5003    0.8166 C   0  0  0  0  0  0
    2.6397    0.2519    0.8108 C   0  0  0  0  0  0
    3.5514   -0.0643   -0.2399 C   0  0  0  0  0  0
    2.5480   -0.6148    1.9252 C   0  0  0  0  0  0
    4.3213   -1.2590   -0.1542 C   0  0  0  0  0  0
    3.3126   -1.7904    1.9987 C   0  0  0  0  0  0
    3.7294    0.7631   -1.3781 C   0  0  0  0  0  0
    4.1957   -2.1146    0.9575 C   0  0  0  0  0  0
    5.2254   -1.6080   -1.1791 C   0  0  0  0  0  0
    4.6338    0.4096   -2.3974 C   0  0  0  0  0  0
    5.3816   -0.7758   -2.3006 C   0  0  0  0  0  0
   -2.6273    1.6040    1.0630 H   0  0  0  0  0  0
   -1.9674   -0.4600   -1.0448 H   0  0  0  0  0  0
   -5.0142    1.1760    0.3750 H   0  0  0  0  0  0
   -4.4549   -0.1764   -0.5747 H   0  0  0  0  0  0
   -4.2781    3.2732    0.1046 H   0  0  0  0  0  0
   -2.7283    4.0942   -0.0187 H   0  0  0  0  0  0
   -3.6088    0.7782   -2.3820 H   0  0  0  0  0  0
   -2.3675    1.8724   -2.9513 H   0  0  0  0  0  0
   -4.2350    0.1641    2.4349 H   0  0  0  0  0  0
   -5.1512   -1.0416    1.5611 H   0  0  0  0  0  0
   -3.0950    4.5991   -2.3449 H   0  0  0  0  0  0
   -4.7411    4.7474   -1.7242 H   0  0  0  0  0  0
   -5.2739    2.4827   -2.4018 H   0  0  0  0  0  0
   -4.2935    3.0318   -3.7616 H   0  0  0  0  0  0
    0.1271   -1.9442    0.4212 H   0  0  0  0  0  0
   -4.0041   -2.6665    3.0855 H   0  0  0  0  0  0
   -0.4685    0.3569   -2.3092 H   0  0  0  0  0  0
    0.9756   -0.2747   -1.5420 H   0  0  0  0  0  0
    0.7508    1.4684   -1.7662 H   0  0  0  0  0  0
   -0.0296   -3.8652    1.9592 H   0  0  0  0  0  0
   -2.0944   -4.2317    3.2983 H   0  0  0  0  0  0
    1.9188    2.1915   -0.0022 H   0  0  0  0  0  0
    2.0080    2.0713    1.7095 H   0  0  0  0  0  0
    1.8741   -0.3830    2.7374 H   0  0  0  0  0  0
    3.2209   -2.4431    2.8543 H   0  0  0  0  0  0
    3.1882    1.6838   -1.5119 H   0  0  0  0  0  0
    4.7810   -3.0206    1.0200 H   0  0  0  0  0  0
    5.8058   -2.5166   -1.1089 H   0  0  0  0  0  0
    4.7541    1.0522   -3.2572 H   0  0  0  0  0  0
    6.0753   -1.0452   -3.0834 H   0  0  0  0  0  0
   -2.7796    2.1609   -0.9221 N   0  3  0  0  0  0
   -1.7996    2.3844   -1.0218 H   0  0  0  0  0  0
  1 16  2  0  0  0
  2  4  1  0  0  0
  2 15  1  0  0  0
  2 16  1  0  0  0
  3  4  1  0  0  0
  3  5  1  0  0  0
  3 30  1  0  0  0
  3 60  1  0  0  0
  4  8  1  0  0  0
  4 31  1  0  0  0
  5  9  1  0  0  0
  5 32  1  0  0  0
  5 33  1  0  0  0
  6 10  1  0  0  0
  6 34  1  0  0  0
  6 35  1  0  0  0
  6 60  1  0  0  0
  7 11  1  0  0  0
  7 36  1  0  0  0
  7 37  1  0  0  0
  7 60  1  0  0  0
  8 12  1  0  0  0
  8 13  2  0  0  0
  9 12  1  0  0  0
  9 38  1  0  0  0
  9 39  1  0  0  0
 10 11  1  0  0  0
 10 40  1  0  0  0
 10 41  1  0  0  0
 11 42  1  0  0  0
 11 43  1  0  0  0
 12 14  2  0  0  0
 13 17  1  0  0  0
 13 44  1  0  0  0
 14 18  1  0  0  0
 14 45  1  0  0  0
 15 46  1  0  0  0
 15 47  1  0  0  0
 15 48  1  0  0  0
 16 19  1  0  0  0
 17 18  2  0  0  0
 17 49  1  0  0  0
 18 50  1  0  0  0
 19 20  1  0  0  0
 19 51  1  0  0  0
 19 52  1  0  0  0
 20 21  1  0  0  0
 20 22  2  0  0  0
 21 23  1  0  0  0
 21 25  2  0  0  0
 22 24  1  0  0  0
 22 53  1  0  0  0
 23 26  1  0  0  0
 23 27  2  0  0  0
 24 26  2  0  0  0
 24 54  1  0  0  0
 25 28  1  0  0  0
 25 55  1  0  0  0
 26 56  1  0  0  0
 27 29  1  0  0  0
 27 57  1  0  0  0
 28 29  2  0  0  0
 28 58  1  0  0  0
 29 59  1  0  0  0
 60 61  1  0  0  0
M  CHG  1  60   1
M  END
> <LID>
L003172

> <PC_CID>
14476593

> <Names>


> <CAS_Numbers>


$$$$
5288826
                    3D
 Structure written by MMmdl.
 41 45  0  0  1  0            999 V2000
   -1.9708   -0.4696    1.1739 O   0  0  0  0  0  0
   -2.7307   -2.7159   -0.0954 O   0  0  0  0  0  0
   -3.6007    1.9145    0.5622 O   0  0  0  0  0  0
    0.3565   -0.6504    0.6586 C   0  0  1  0  0  0
    1.2884   -1.2708   -0.3982 C   0  0  2  0  0  0
    2.3611   -0.2088   -0.7435 C   0  0  1  0  0  0
   -0.9336   -1.4621    1.0265 C   0  0  2  0  0  0
    1.1940   -0.3510    1.9257 C   0  0  0  0  0  0
   -0.2426    0.6146    0.1095 C   0  0  0  0  0  0
    1.7388    1.1028   -1.3101 C   0  0  0  0  0  0
    2.4153    0.5421    1.6341 C   0  0  0  0  0  0
    0.3916    1.5409   -0.7351 C   0  0  0  0  0  0
   -1.3309   -2.5349   -0.0312 C   0  0  2  0  0  0
    0.4827   -1.7752   -1.5818 C   0  0  0  0  0  0
   -1.5580    0.6547    0.5235 C   0  0  0  0  0  0
   -0.7279   -2.3292   -1.4111 C   0  0  0  0  0  0
    4.4420    0.7809    0.2367 C   0  0  0  0  0  0
   -0.3683    2.6772   -1.0846 C   0  0  0  0  0  0
   -2.2993    1.8006    0.1714 C   0  0  0  0  0  0
   -1.6963    2.8172   -0.6101 C   0  0  0  0  0  0
    1.7833   -2.1507    0.0167 H   0  0  0  0  0  0
    3.0315   -0.6243   -1.4974 H   0  0  0  0  0  0
   -0.8169   -1.9642    1.9880 H   0  0  0  0  0  0
    1.5400   -1.2920    2.3556 H   0  0  0  0  0  0
    0.5743    0.1194    2.6906 H   0  0  0  0  0  0
    1.5614    0.9503   -2.3752 H   0  0  0  0  0  0
    2.4333    1.9397   -1.2592 H   0  0  0  0  0  0
    2.1041    1.5702    1.4458 H   0  0  0  0  0  0
    3.0566    0.5756    2.5156 H   0  0  0  0  0  0
   -0.9262   -3.4906    0.3039 H   0  0  0  0  0  0
    0.9093   -1.6768   -2.5694 H   0  0  0  0  0  0
   -1.2850   -2.6946   -2.2615 H   0  0  0  0  0  0
    5.0871    0.7279    1.1142 H   0  0  0  0  0  0
    4.9960    0.3612   -0.6036 H   0  0  0  0  0  0
    4.2500    1.8340    0.0320 H   0  0  0  0  0  0
    0.0487    3.4251   -1.7429 H   0  0  0  0  0  0
   -2.2713    3.6880   -0.8892 H   0  0  0  0  0  0
   -3.0514   -2.8974    0.7749 H   0  0  0  0  0  0
   -3.8956    1.1620    1.0525 H   0  0  0  0  0  0
    3.1907    0.0255    0.4778 N   0  3  2  0  0  0
    3.4985   -0.8956    0.7562 H   0  0  0  0  0  0
  1  7  1  0  0  0
  1 15  1  0  0  0
  2 13  1  0  0  0
  2 38  1  0  0  0
  3 19  1  0  0  0
  3 39  1  0  0  0
  4  5  1  0  0  0
  4  7  1  0  0  0
  4  8  1  0  0  0
  4  9  1  0  0  0
  5  6  1  0  0  0
  5 14  1  0  0  0
  5 21  1  0  0  0
  6 10  1  0  0  0
  6 22  1  0  0  0
  6 40  1  0  0  0
  7 13  1  0  0  0
  7 23  1  0  0  0
  8 11  1  0  0  0
  8 24  1  0  0  0
  8 25  1  0  0  0
  9 12  2  0  0  0
  9 15  1  0  0  0
 10 12  1  0  0  0
 10 26  1  0  0  0
 10 27  1  0  0  0
 11 28  1  0  0  0
 11 29  1  0  0  0
 11 40  1  0  0  0
 12 18  1  0  0  0
 13 16  1  0  0  0
 13 30  1  0  0  0
 14 16  2  0  0  0
 14 31  1  0  0  0
 15 19  2  0  0  0
 16 32  1  0  0  0
 17 33  1  0  0  0
 17 34  1  0  0  0
 17 35  1  0  0  0
 17 40  1  0  0  0
 18 20  2  0  0  0
 18 36  1  0  0  0
 19 20  1  0  0  0
 20 37  1  0  0  0
 40 41  1  0  0  0
M  CHG  1  40   1
M  END
> <LID>
L013411

> <PC_CID>
5288826

> <Names>
Morphine;nepenthe

> <CAS_Numbers>
6211-15-0;64-31-3

$$$$
6445230
                    3D
 Structure written by MMmdl.
 68 74  0  0  1  0            999 V2000
   -0.3938   -0.2393   -1.3336 O   0  0  0  0  0  0
    2.3725    1.8041    1.6396 O   0  0  0  0  0  0
   -0.7806   -2.8192   -2.7508 O   0  0  0  0  0  0
   -3.0064   -1.3195    0.1796 O   0  0  0  0  0  0
   -8.7457    1.4980    1.0827 O   0  0  0  0  0  0
   -2.1420    0.6074    1.0160 N   0  0  0  0  0  0
    1.5741    0.3079   -0.1402 C   0  0  1  0  0  0
    2.2373    0.4426    1.2512 C   0  0  1  0  0  0
    3.6704   -0.1386    1.1053 C   0  0  1  0  0  0
    0.0389    0.5777   -0.2264 C   0  0  2  0  0  0
    2.3606    1.1876   -1.1494 C   0  0  0  0  0  0
    1.6133   -1.1100   -0.6262 C   0  0  0  0  0  0
    1.3895   -0.2158    2.3614 C   0  0  0  0  0  0
   -0.7546    0.0891    1.0249 C   0  0  1  0  0  0
    3.6637   -1.6368    0.6704 C   0  0  0  0  0  0
    3.8583    0.8208   -1.2012 C   0  0  0  0  0  0
   -0.0425    0.3486    2.3720 C   0  0  0  0  0  0
    2.6128   -2.0570   -0.3589 C   0  0  0  0  0  0
    0.4668   -1.3017   -1.3721 C   0  0  0  0  0  0
    5.9100    0.4653    0.1598 C   0  0  0  0  0  0
    6.7050    1.6724   -0.3022 C   0  0  0  0  0  0
    8.1909    1.5438   -0.5499 C   0  0  0  0  0  0
    7.2529    1.7613   -1.7095 C   0  0  0  0  0  0
    2.4503   -3.3092   -0.9892 C   0  0  0  0  0  0
    0.3257   -2.5559   -1.9985 C   0  0  0  0  0  0
    1.3240   -3.5472   -1.8186 C   0  0  0  0  0  0
   -2.2891    2.0377    1.3360 C   0  0  0  0  0  0
   -3.1828   -0.1879    0.6369 C   0  0  0  0  0  0
   -4.5148    0.3747    0.8517 C   0  0  0  0  0  0
   -5.5987   -0.1882    0.2824 C   0  0  0  0  0  0
   -6.9741    0.2968    0.4465 C   0  0  0  0  0  0
   -8.1264   -0.2871   -0.1449 C   0  0  0  0  0  0
   -7.3926    1.3715    1.1794 C   0  0  0  0  0  0
   -9.1750    0.4837    0.2757 C   0  0  0  0  0  0
    4.1673   -0.0716    2.0745 H   0  0  0  0  0  0
   -0.1498    1.6332   -0.4222 H   0  0  0  0  0  0
    1.9354    1.0966   -2.1500 H   0  0  0  0  0  0
    2.2569    2.2414   -0.8886 H   0  0  0  0  0  0
    1.3416   -1.2959    2.2209 H   0  0  0  0  0  0
    1.8560   -0.0616    3.3354 H   0  0  0  0  0  0
   -0.7771   -1.0010    0.9825 H   0  0  0  0  0  0
    4.6447   -1.9556    0.3206 H   0  0  0  0  0  0
    3.4710   -2.2441    1.5553 H   0  0  0  0  0  0
    4.0054   -0.1199   -1.7326 H   0  0  0  0  0  0
    4.3844    1.5787   -1.7816 H   0  0  0  0  0  0
   -0.6074   -0.1264    3.1751 H   0  0  0  0  0  0
   -0.0132    1.4085    2.6198 H   0  0  0  0  0  0
    6.1496   -0.3983   -0.4621 H   0  0  0  0  0  0
    6.2404    0.2287    1.1719 H   0  0  0  0  0  0
    6.3976    2.6079    0.1621 H   0  0  0  0  0  0
    1.5093    2.1727    1.7544 H   0  0  0  0  0  0
    8.8244    2.3773   -0.2530 H   0  0  0  0  0  0
    8.6405    0.5578   -0.4481 H   0  0  0  0  0  0
    7.0785    0.9207   -2.3783 H   0  0  0  0  0  0
    7.2582    2.7404   -2.1845 H   0  0  0  0  0  0
    3.1725   -4.0953   -0.8241 H   0  0  0  0  0  0
    1.2083   -4.5115   -2.2914 H   0  0  0  0  0  0
   -2.9493    2.5410    0.6280 H   0  0  0  0  0  0
   -2.6928    2.1646    2.3412 H   0  0  0  0  0  0
   -1.3448    2.5790    1.2929 H   0  0  0  0  0  0
   -1.3960   -2.1014   -2.7485 H   0  0  0  0  0  0
   -4.6601    1.2394    1.4804 H   0  0  0  0  0  0
   -5.4868   -1.0598   -0.3477 H   0  0  0  0  0  0
   -8.1839   -1.1518   -0.7895 H   0  0  0  0  0  0
   -6.8991    2.1107    1.7930 H   0  0  0  0  0  0
  -10.2410    0.4540    0.1044 H   0  0  0  0  0  0
    4.4486    0.7278    0.1622 N   0  3  2  0  0  0
    4.3445    1.6517    0.5596 H   0  0  0  0  0  0
  1 10  1  0  0  0
  1 19  1  0  0  0
  2  8  1  0  0  0
  2 51  1  0  0  0
  3 25  1  0  0  0
  3 61  1  0  0  0
  4 28  2  0  0  0
  5 33  1  0  0  0
  5 34  1  0  0  0
  6 14  1  0  0  0
  6 27  1  0  0  0
  6 28  1  0  0  0
  7  8  1  0  0  0
  7 10  1  0  0  0
  7 11  1  0  0  0
  7 12  1  0  0  0
  8  9  1  0  0  0
  8 13  1  0  0  0
  9 15  1  0  0  0
  9 35  1  0  0  0
  9 67  1  0  0  0
 10 14  1  0  0  0
 10 36  1  0  0  0
 11 16  1  0  0  0
 11 37  1  0  0  0
 11 38  1  0  0  0
 12 18  2  0  0  0
 12 19  1  0  0  0
 13 17  1  0  0  0
 13 39  1  0  0  0
 13 40  1  0  0  0
 14 17  1  0  0  0
 14 41  1  0  0  0
 15 18  1  0  0  0
 15 42  1  0  0  0
 15 43  1  0  0  0
 16 44  1  0  0  0
 16 45  1  0  0  0
 16 67  1  0  0  0
 17 46  1  0  0  0
 17 47  1  0  0  0
 18 24  1  0  0  0
 19 25  2  0  0  0
 20 21  1  0  0  0
 20 48  1  0  0  0
 20 49  1  0  0  0
 20 67  1  0  0  0
 21 22  1  0  0  0
 21 23  1  0  0  0
 21 50  1  0  0  0
 22 23  1  0  0  0
 22 52  1  0  0  0
 22 53  1  0  0  0
 23 54  1  0  0  0
 23 55  1  0  0  0
 24 26  2  0  0  0
 24 56  1  0  0  0
 25 26  1  0  0  0
 26 57  1  0  0  0
 27 58  1  0  0  0
 27 59  1  0  0  0
 27 60  1  0  0  0
 28 29  1  0  0  0
 29 30  2  0  0  0
 29 62  1  0  0  0
 30 31  1  0  0  0
 30 63  1  0  0  0
 31 32  1  0  0  0
 31 33  2  0  0  0
 32 34  2  0  0  0
 32 64  1  0  0  0
 33 65  1  0  0  0
 34 66  1  0  0  0
 67 68  1  0  0  0
M  CHG  1  67   1
M  END
> <LID>
L001612

> <PC_CID>
6445230

> <Names>
TRK 820

> <CAS_Numbers>
152657-84-6;152658-17-8

$$$$
179334
                    3D
 Structure written by MMmdl.
 58 61  0  0  1  0            999 V2000
    1.3100    2.2496   -2.2471 S   0  0  0  0  0  0
   -5.0705    1.0492   -0.2666 O   0  0  0  0  0  0
    0.8861    0.7157    0.2988 N   0  0  0  0  0  0
   -4.0565   -0.7328    0.7022 N   0  0  0  0  0  0
    2.4227   -1.2654    0.1732 C   0  0  0  0  0  0
    3.8992   -3.2707    0.1254 C   0  0  0  0  0  0
    1.5818   -3.5535   -0.3842 C   0  0  0  0  0  0
    1.0909   -0.6881    0.7121 C   0  0  1  0  0  0
    3.7223   -4.5492   -0.7037 C   0  0  0  0  0  0
    2.2530   -4.9152   -0.5291 C   0  0  0  0  0  0
    0.9096   -0.9210    2.2264 C   0  0  0  0  0  0
   -0.2716    0.9894   -0.3565 C   0  0  0  0  0  0
    1.8958    1.6237    0.3894 C   0  0  0  0  0  0
   -0.2294    1.6744   -1.5949 C   0  0  0  0  0  0
    2.2500    2.3833   -0.7553 C   0  0  0  0  0  0
   -1.5253    0.5777    0.1543 C   0  0  0  0  0  0
    2.6200    1.8327    1.5871 C   0  0  0  0  0  0
   -2.7194    0.8215   -0.5641 C   0  0  0  0  0  0
   -1.4132    1.9231   -2.3139 C   0  0  0  0  0  0
    3.3346    3.2813   -0.7160 C   0  0  0  0  0  0
   -2.6529    1.5025   -1.7989 C   0  0  0  0  0  0
    3.6973    2.7388    1.6282 C   0  0  0  0  0  0
    4.0628    3.4554    0.4745 C   0  0  0  0  0  0
   -4.0533    0.4036   -0.0135 C   0  0  0  0  0  0
   -5.2384   -1.3433    1.2993 C   0  0  0  0  0  0
   -6.0155   -2.1877    0.2766 C   0  0  0  0  0  0
   -7.2455   -2.8650    0.8902 C   0  0  0  0  0  0
    3.2619   -0.7805    0.6736 H   0  0  0  0  0  0
    2.5270   -1.0471   -0.8912 H   0  0  0  0  0  0
    4.5377   -2.5593   -0.4010 H   0  0  0  0  0  0
    4.3717   -3.4897    1.0835 H   0  0  0  0  0  0
    1.4223   -3.1187   -1.3726 H   0  0  0  0  0  0
    0.6150   -3.6198    0.1158 H   0  0  0  0  0  0
    0.3029   -1.2651    0.2268 H   0  0  0  0  0  0
    3.9218   -4.3348   -1.7547 H   0  0  0  0  0  0
    4.3956   -5.3495   -0.3949 H   0  0  0  0  0  0
    2.1195   -5.4968    0.3842 H   0  0  0  0  0  0
    1.8576   -5.4976   -1.3620 H   0  0  0  0  0  0
    0.0873   -0.3333    2.6341 H   0  0  0  0  0  0
    0.6843   -1.9686    2.4264 H   0  0  0  0  0  0
    1.8072   -0.6875    2.7959 H   0  0  0  0  0  0
   -1.5706    0.0735    1.1077 H   0  0  0  0  0  0
    2.3586    1.3187    2.4956 H   0  0  0  0  0  0
   -1.3745    2.4478   -3.2574 H   0  0  0  0  0  0
    3.5997    3.8503   -1.5951 H   0  0  0  0  0  0
   -3.5539    1.7081   -2.3592 H   0  0  0  0  0  0
    4.2430    2.8857    2.5487 H   0  0  0  0  0  0
    4.8896    4.1497    0.5070 H   0  0  0  0  0  0
   -3.1779   -1.2114    0.8345 H   0  0  0  0  0  0
   -4.9117   -1.9719    2.1281 H   0  0  0  0  0  0
   -5.8824   -0.5739    1.7290 H   0  0  0  0  0  0
   -6.3343   -1.5597   -0.5563 H   0  0  0  0  0  0
   -5.3590   -2.9497   -0.1451 H   0  0  0  0  0  0
   -7.7764   -3.4560    0.1436 H   0  0  0  0  0  0
   -6.9628   -3.5334    1.7040 H   0  0  0  0  0  0
   -7.9433   -2.1276    1.2881 H   0  0  0  0  0  0
    2.5424   -2.7289    0.3812 N   0  3  0  0  0  0
    2.3574   -2.9065    1.3582 H   0  0  0  0  0  0
  1 14  1  0  0  0
  1 15  1  0  0  0
  2 24  2  0  0  0
  3  8  1  0  0  0
  3 12  1  0  0  0
  3 13  1  0  0  0
  4 24  1  0  0  0
  4 25  1  0  0  0
  4 49  1  0  0  0
  5  8  1  0  0  0
  5 28  1  0  0  0
  5 29  1  0  0  0
  5 57  1  0  0  0
  6  9  1  0  0  0
  6 30  1  0  0  0
  6 31  1  0  0  0
  6 57  1  0  0  0
  7 10  1  0  0  0
  7 32  1  0  0  0
  7 33  1  0  0  0
  7 57  1  0  0  0
  8 11  1  0  0  0
  8 34  1  0  0  0
  9 10  1  0  0  0
  9 35  1  0  0  0
  9 36  1  0  0  0
 10 37  1  0  0  0
 10 38  1  0  0  0
 11 39  1  0  0  0
 11 40  1  0  0  0
 11 41  1  0  0  0
 12 14  2  0  0  0
 12 16  1  0  0  0
 13 15  1  0  0  0
 13 17  2  0  0  0
 14 19  1  0  0  0
 15 20  2  0  0  0
 16 18  2  0  0  0
 16 42  1  0  0  0
 17 22  1  0  0  0
 17 43  1  0  0  0
 18 21  1  0  0  0
 18 24  1  0  0  0
 19 21  2  0  0  0
 19 44  1  0  0  0
 20 23  1  0  0  0
 20 45  1  0  0  0
 21 46  1  0  0  0
 22 23  2  0  0  0
 22 47  1  0  0  0
 23 48  1  0  0  0
 25 26  1  0  0  0
 25 50  1  0  0  0
 25 51  1  0  0  0
 26 27  1  0  0  0
 26 52  1  0  0  0
 26 53  1  0  0  0
 27 54  1  0  0  0
 27 55  1  0  0  0
 27 56  1  0  0  0
 57 58  1  0  0  0
M  CHG  1  57   1
M  END
> <LID>
L001386

> <PC_CID>
179334

> <Names>
Apadoline

> <CAS_Numbers>
135003-30-4

$$$$
15730149
                    3D
 Structure written by MMmdl.
 52 55  0  0  1  0            999 V2000
   -3.3065    3.1109    0.1185 S   0  0  0  0  0  0
    0.1327    0.1845   -0.9956 O   0  0  0  0  0  0
    4.0676    3.0305   -1.0795 O   0  0  0  0  0  0
   -1.0354    1.0528    0.7493 N   0  0  0  0  0  0
   -2.3679    0.5179    0.3715 C   0  0  2  0  0  0
   -2.3451   -0.9761   -0.0676 C   0  0  0  0  0  0
   -3.5193   -3.1602    0.1279 C   0  0  0  0  0  0
   -4.6882   -1.3601   -0.9234 C   0  0  0  0  0  0
   -4.5139   -3.7333   -0.8859 C   0  0  0  0  0  0
   -5.5361   -2.6209   -1.0619 C   0  0  0  0  0  0
   -2.9752    1.5006   -0.6563 C   0  0  0  0  0  0
    1.4726    1.1913    0.7021 C   0  0  2  0  0  0
   -1.1623    2.2143    1.6483 C   0  0  0  0  0  0
    0.1190    0.7848    0.0797 C   0  0  0  0  0  0
    1.9986    2.5288    0.1123 C   0  0  0  0  0  0
   -1.6769    3.4301    0.8561 C   0  0  0  0  0  0
    2.5675    0.1938    0.3749 C   0  0  0  0  0  0
    3.6264    0.7792   -0.3120 C   0  0  0  0  0  0
    3.3576    2.2018   -0.5136 C   0  0  0  0  0  0
    2.5966   -1.1738    0.7090 C   0  0  0  0  0  0
    4.7513    0.0348   -0.7090 C   0  0  0  0  0  0
    4.7913   -1.3413   -0.3867 C   0  0  0  0  0  0
    3.7176   -1.9391    0.3185 C   0  0  0  0  0  0
    5.9835   -2.1795   -0.7993 C   0  0  0  0  0  0
   -2.9954    0.5408    1.2642 H   0  0  0  0  0  0
   -1.9959   -1.0937   -1.0939 H   0  0  0  0  0  0
   -1.6265   -1.4962    0.5685 H   0  0  0  0  0  0
   -3.7695   -3.4913    1.1363 H   0  0  0  0  0  0
   -2.5082   -3.5087   -0.0885 H   0  0  0  0  0  0
   -4.2258   -1.1265   -1.8840 H   0  0  0  0  0  0
   -5.2958   -0.5095   -0.6151 H   0  0  0  0  0  0
   -4.0078   -3.9178   -1.8347 H   0  0  0  0  0  0
   -4.9603   -4.6724   -0.5574 H   0  0  0  0  0  0
   -6.2758   -2.6648   -0.2611 H   0  0  0  0  0  0
   -6.0648   -2.6750   -2.0141 H   0  0  0  0  0  0
   -2.3043    1.6402   -1.5049 H   0  0  0  0  0  0
   -3.9171    1.1490   -1.0649 H   0  0  0  0  0  0
    1.4196    1.2287    1.7895 H   0  0  0  0  0  0
   -1.8503    1.9850    2.4631 H   0  0  0  0  0  0
   -0.2356    2.4891    2.1465 H   0  0  0  0  0  0
    2.1200    3.2822    0.8906 H   0  0  0  0  0  0
    1.3346    2.9345   -0.6519 H   0  0  0  0  0  0
   -0.9769    3.6884    0.0609 H   0  0  0  0  0  0
   -1.7531    4.3021    1.5058 H   0  0  0  0  0  0
    1.7794   -1.6300    1.2481 H   0  0  0  0  0  0
    5.5631    0.5055   -1.2447 H   0  0  0  0  0  0
    3.7525   -2.9908    0.5627 H   0  0  0  0  0  0
    5.7997   -2.6425   -1.7689 H   0  0  0  0  0  0
    6.8830   -1.5677   -0.8752 H   0  0  0  0  0  0
    6.1734   -2.9689   -0.0713 H   0  0  0  0  0  0
   -3.6475   -1.6807    0.0809 N   0  3  0  0  0  0
   -4.0240   -1.4177    0.9807 H   0  0  0  0  0  0
  1 11  1  0  0  0
  1 16  1  0  0  0
  2 14  2  0  0  0
  3 19  2  0  0  0
  4  5  1  0  0  0
  4 13  1  0  0  0
  4 14  1  0  0  0
  5  6  1  0  0  0
  5 11  1  0  0  0
  5 25  1  0  0  0
  6 26  1  0  0  0
  6 27  1  0  0  0
  6 51  1  0  0  0
  7  9  1  0  0  0
  7 28  1  0  0  0
  7 29  1  0  0  0
  7 51  1  0  0  0
  8 10  1  0  0  0
  8 30  1  0  0  0
  8 31  1  0  0  0
  8 51  1  0  0  0
  9 10  1  0  0  0
  9 32  1  0  0  0
  9 33  1  0  0  0
 10 34  1  0  0  0
 10 35  1  0  0  0
 11 36  1  0  0  0
 11 37  1  0  0  0
 12 14  1  0  0  0
 12 15  1  0  0  0
 12 17  1  0  0  0
 12 38  1  0  0  0
 13 16  1  0  0  0
 13 39  1  0  0  0
 13 40  1  0  0  0
 15 19  1  0  0  0
 15 41  1  0  0  0
 15 42  1  0  0  0
 16 43  1  0  0  0
 16 44  1  0  0  0
 17 18  2  0  0  0
 17 20  1  0  0  0
 18 19  1  0  0  0
 18 21  1  0  0  0
 20 23  2  0  0  0
 20 45  1  0  0  0
 21 22  2  0  0  0
 21 46  1  0  0  0
 22 23  1  0  0  0
 22 24  1  0  0  0
 23 47  1  0  0  0
 24 48  1  0  0  0
 24 49  1  0  0  0
 24 50  1  0  0  0
 51 52  1  0  0  0
M  CHG  1  51   1
M  END
> <LID>
L004490

> <PC_CID>
15730149

> <Names>


> <CAS_Numbers>


$$$$
19919526
                    3D
 Structure written by MMmdl.
 54 57  0  0  1  0            999 V2000
    4.3553   -4.5163    0.2703 Cl  0  0  0  0  0  0
   -1.2115    1.3691   -1.6467 O   0  0  0  0  0  0
   -3.9822   -2.6686   -3.0658 O   0  5  0  0  0  0
   -4.6979   -4.3291   -1.8822 O   0  0  0  0  0  0
   -0.0576    0.6805    0.1820 N   0  0  0  0  0  0
   -4.2263   -3.2015   -1.9880 N   0  3  0  0  0  0
    2.3378    1.5478   -0.0551 C   0  0  1  0  0  0
    1.2260    0.5643   -0.5454 C   0  0  1  0  0  0
    3.6704    0.7507   -0.1057 C   0  0  0  0  0  0
    3.5309    3.7150   -0.4304 C   0  0  0  0  0  0
    1.1658    3.6803   -0.6766 C   0  0  0  0  0  0
    1.8664   -0.7945   -0.3753 C   0  0  0  0  0  0
    3.2274   -0.6856   -0.1168 C   0  0  0  0  0  0
    3.1147    5.1104   -0.8806 C   0  0  0  0  0  0
    1.6229    5.1416   -0.5669 C   0  0  0  0  0  0
    1.2372   -2.0518   -0.4437 C   0  0  0  0  0  0
    4.0271   -1.8237    0.0873 C   0  0  0  0  0  0
   -0.0389    0.3416    1.6124 C   0  0  0  0  0  0
   -1.1997    1.0294   -0.4631 C   0  0  0  0  0  0
    2.0249   -3.2060   -0.2398 C   0  0  0  0  0  0
    3.4111   -3.0936    0.0245 C   0  0  0  0  0  0
   -2.5477    0.9993    0.2793 C   0  0  0  0  0  0
   -3.1161   -0.4114    0.3596 C   0  0  0  0  0  0
   -3.4073   -1.1358   -0.8177 C   0  0  0  0  0  0
   -3.3753   -0.9976    1.6156 C   0  0  0  0  0  0
   -3.9350   -2.4468   -0.7529 C   0  0  0  0  0  0
   -3.9015   -2.2998    1.6930 C   0  0  0  0  0  0
   -4.1778   -3.0215    0.5164 C   0  0  0  0  0  0
    2.1673    1.7717    0.9986 H   0  0  0  0  0  0
    1.1064    0.6801   -1.6238 H   0  0  0  0  0  0
    4.2250    0.9416   -1.0253 H   0  0  0  0  0  0
    4.3179    0.9675    0.7447 H   0  0  0  0  0  0
    3.6829    3.7078    0.6505 H   0  0  0  0  0  0
    4.4565    3.3888   -0.9057 H   0  0  0  0  0  0
    0.5474    3.5241   -1.5609 H   0  0  0  0  0  0
    0.5699    3.4184    0.1984 H   0  0  0  0  0  0
    3.6714    5.9027   -0.3790 H   0  0  0  0  0  0
    3.2710    5.2165   -1.9551 H   0  0  0  0  0  0
    1.4699    5.4979    0.4528 H   0  0  0  0  0  0
    1.0716    5.8049   -1.2343 H   0  0  0  0  0  0
    0.1785   -2.1333   -0.6432 H   0  0  0  0  0  0
    5.0847   -1.7300    0.2857 H   0  0  0  0  0  0
   -0.6454   -0.5413    1.8099 H   0  0  0  0  0  0
    0.9616    0.1144    1.9799 H   0  0  0  0  0  0
   -0.4137    1.1679    2.2169 H   0  0  0  0  0  0
    1.5643   -4.1820   -0.2858 H   0  0  0  0  0  0
   -2.4624    1.4458    1.2697 H   0  0  0  0  0  0
   -3.2621    1.6212   -0.2618 H   0  0  0  0  0  0
   -3.2184   -0.6759   -1.7770 H   0  0  0  0  0  0
   -3.1673   -0.4532    2.5252 H   0  0  0  0  0  0
   -4.0942   -2.7469    2.6572 H   0  0  0  0  0  0
   -4.5805   -4.0203    0.6001 H   0  0  0  0  0  0
    2.3878    2.8453   -0.7816 N   0  3  0  0  0  0
    2.4959    2.6331   -1.7634 H   0  0  0  0  0  0
  1 21  1  0  0  0
  2 19  2  0  0  0
  3  6  1  0  0  0
  4  6  2  0  0  0
  5  8  1  0  0  0
  5 18  1  0  0  0
  5 19  1  0  0  0
  6 26  1  0  0  0
  7  8  1  0  0  0
  7  9  1  0  0  0
  7 29  1  0  0  0
  7 53  1  0  0  0
  8 12  1  0  0  0
  8 30  1  0  0  0
  9 13  1  0  0  0
  9 31  1  0  0  0
  9 32  1  0  0  0
 10 14  1  0  0  0
 10 33  1  0  0  0
 10 34  1  0  0  0
 10 53  1  0  0  0
 11 15  1  0  0  0
 11 35  1  0  0  0
 11 36  1  0  0  0
 11 53  1  0  0  0
 12 13  2  0  0  0
 12 16  1  0  0  0
 13 17  1  0  0  0
 14 15  1  0  0  0
 14 37  1  0  0  0
 14 38  1  0  0  0
 15 39  1  0  0  0
 15 40  1  0  0  0
 16 20  2  0  0  0
 16 41  1  0  0  0
 17 21  2  0  0  0
 17 42  1  0  0  0
 18 43  1  0  0  0
 18 44  1  0  0  0
 18 45  1  0  0  0
 19 22  1  0  0  0
 20 21  1  0  0  0
 20 46  1  0  0  0
 22 23  1  0  0  0
 22 47  1  0  0  0
 22 48  1  0  0  0
 23 24  2  0  0  0
 23 25  1  0  0  0
 24 26  1  0  0  0
 24 49  1  0  0  0
 25 27  2  0  0  0
 25 50  1  0  0  0
 26 28  2  0  0  0
 27 28  1  0  0  0
 27 51  1  0  0  0
 28 52  1  0  0  0
 53 54  1  0  0  0
M  CHG  3   3  -1   6   1  53   1
M  END
> <LID>
L004286

> <PC_CID>
19919526

> <Names>


> <CAS_Numbers>


$$$$
21568277
                    3D
 Structure written by MMmdl.
 53 57  0  0  1  0            999 V2000
    5.0126   -1.4932    1.4231 O   0  0  0  0  0  0
    1.0398    1.2467    0.2100 C   0  0  2  0  0  0
    0.2117    1.4805   -1.0846 C   0  0  1  0  0  0
   -0.6532    0.2392   -1.3658 C   0  0  1  0  0  0
    0.0585    0.9797    1.3788 C   0  0  0  0  0  0
    1.8999    2.5163    0.4844 C   0  0  0  0  0  0
   -0.5949    2.7973   -1.0919 C   0  0  0  0  0  0
    1.9197   -0.0090    0.0338 C   0  0  0  0  0  0
   -0.8943   -0.1947    1.0876 C   0  0  0  0  0  0
    0.2726   -0.9495   -1.7110 C   0  0  0  0  0  0
    1.1107    3.8394    0.4491 C   0  0  0  0  0  0
    0.3242    4.0009   -0.8563 C   0  0  0  0  0  0
    1.5358   -1.0453   -0.8630 C   0  0  0  0  0  0
   -2.5903   -1.0807   -0.5022 C   0  0  0  0  0  0
   -3.8899   -0.8648    0.2731 C   0  0  0  0  0  0
   -5.1287   -1.6827   -0.1270 C   0  0  0  0  0  0
   -4.0660   -1.4563    1.6830 C   0  0  0  0  0  0
    3.0933   -0.1849    0.8075 C   0  0  0  0  0  0
   -5.5353   -1.7162    1.3470 C   0  0  0  0  0  0
    2.3330   -2.2014   -0.9924 C   0  0  0  0  0  0
    3.8825   -1.3432    0.6734 C   0  0  0  0  0  0
    3.5045   -2.3506   -0.2303 C   0  0  0  0  0  0
    0.9190    1.5732   -1.9118 H   0  0  0  0  0  0
   -1.2738    0.4411   -2.2402 H   0  0  0  0  0  0
   -0.5413    1.8631    1.5929 H   0  0  0  0  0  0
    0.6142    0.7760    2.2951 H   0  0  0  0  0  0
    2.6937    2.5755   -0.2620 H   0  0  0  0  0  0
    2.3949    2.4506    1.4528 H   0  0  0  0  0  0
   -1.3804    2.7821   -0.3366 H   0  0  0  0  0  0
   -1.1012    2.9156   -2.0506 H   0  0  0  0  0  0
   -0.3605   -1.1452    1.1107 H   0  0  0  0  0  0
   -1.6304   -0.2459    1.8881 H   0  0  0  0  0  0
    0.6060   -0.8362   -2.7434 H   0  0  0  0  0  0
   -0.2646   -1.8973   -1.6795 H   0  0  0  0  0  0
    1.7990    4.6771    0.5657 H   0  0  0  0  0  0
    0.4293    3.8946    1.2980 H   0  0  0  0  0  0
   -0.2621    4.9199   -0.8281 H   0  0  0  0  0  0
    1.0185    4.1024   -1.6916 H   0  0  0  0  0  0
   -2.1712   -2.0664   -0.2952 H   0  0  0  0  0  0
   -2.8242   -1.0745   -1.5676 H   0  0  0  0  0  0
   -4.1736    0.1901    0.2833 H   0  0  0  0  0  0
   -4.8782   -2.6716   -0.5152 H   0  0  0  0  0  0
   -5.8283   -1.1618   -0.7815 H   0  0  0  0  0  0
   -3.9099   -0.7511    2.4999 H   0  0  0  0  0  0
   -3.5003   -2.3774    1.8341 H   0  0  0  0  0  0
    3.4019    0.5602    1.5234 H   0  0  0  0  0  0
   -6.1881   -0.8876    1.6263 H   0  0  0  0  0  0
   -5.9224   -2.6748    1.6940 H   0  0  0  0  0  0
    2.0450   -2.9835   -1.6797 H   0  0  0  0  0  0
    4.1076   -3.2407   -0.3355 H   0  0  0  0  0  0
    5.1822   -0.7607    1.9953 H   0  0  0  0  0  0
   -1.5817   -0.0254   -0.2210 N   0  3  2  0  0  0
   -2.1154    0.8277   -0.1348 H   0  0  0  0  0  0
  1 21  1  0  0  0
  1 51  1  0  0  0
  2  3  1  0  0  0
  2  5  1  0  0  0
  2  6  1  0  0  0
  2  8  1  0  0  0
  3  4  1  0  0  0
  3  7  1  0  0  0
  3 23  1  0  0  0
  4 10  1  0  0  0
  4 24  1  0  0  0
  4 52  1  0  0  0
  5  9  1  0  0  0
  5 25  1  0  0  0
  5 26  1  0  0  0
  6 11  1  0  0  0
  6 27  1  0  0  0
  6 28  1  0  0  0
  7 12  1  0  0  0
  7 29  1  0  0  0
  7 30  1  0  0  0
  8 13  2  0  0  0
  8 18  1  0  0  0
  9 31  1  0  0  0
  9 32  1  0  0  0
  9 52  1  0  0  0
 10 13  1  0  0  0
 10 33  1  0  0  0
 10 34  1  0  0  0
 11 12  1  0  0  0
 11 35  1  0  0  0
 11 36  1  0  0  0
 12 37  1  0  0  0
 12 38  1  0  0  0
 13 20  1  0  0  0
 14 15  1  0  0  0
 14 39  1  0  0  0
 14 40  1  0  0  0
 14 52  1  0  0  0
 15 16  1  0  0  0
 15 17  1  0  0  0
 15 41  1  0  0  0
 16 19  1  0  0  0
 16 42  1  0  0  0
 16 43  1  0  0  0
 17 19  1  0  0  0
 17 44  1  0  0  0
 17 45  1  0  0  0
 18 21  2  0  0  0
 18 46  1  0  0  0
 19 47  1  0  0  0
 19 48  1  0  0  0
 20 22  2  0  0  0
 20 49  1  0  0  0
 21 22  1  0  0  0
 22 50  1  0  0  0
 52 53  1  0  0  0
M  CHG  1  52   1
M  END
> <LID>
L019414

> <PC_CID>
21568277

> <Names>


> <CAS_Numbers>
4163-26-2;53448-67-2

$$$$
18939026
                    3D
 Structure written by MMmdl.
 56 58  0  0  1  0            999 V2000
   -3.4140   -0.8818   -2.9489 Cl  0  0  0  0  0  0
   -5.8781    1.1237   -2.6428 Cl  0  0  0  0  0  0
    4.3213    3.5099   -0.6720 O   0  0  0  0  0  0
   -0.4854    1.9119    1.6292 O   0  0  0  0  0  0
    0.2847   -0.1931    1.2432 N   0  0  0  0  0  0
    0.2040   -4.5888    3.3919 N   0  0  0  0  0  0
    4.2183    1.9058    1.1374 C   0  0  0  0  0  0
    4.4541    0.4245   -0.7230 C   0  0  0  0  0  0
    5.0969    2.5929    0.0745 C   0  0  1  0  0  0
    5.5691    1.4583   -0.8402 C   0  0  0  0  0  0
    2.8035   -0.1892    1.1359 C   0  0  0  0  0  0
    1.4658    0.2626    0.4721 C   0  0  1  0  0  0
    1.2710   -0.0890   -1.0054 C   0  0  0  0  0  0
    0.1730   -1.6447    1.4766 C   0  0  0  0  0  0
   -0.6694    0.6940    1.6372 C   0  0  0  0  0  0
    1.7412   -1.3024   -1.5611 C   0  0  0  0  0  0
    0.5526    0.8067   -1.8288 C   0  0  0  0  0  0
    0.3876   -2.0052    2.9558 C   0  0  0  0  0  0
   -2.0794    0.2065    2.0161 C   0  0  0  0  0  0
    1.5082   -1.6033   -2.9169 C   0  0  0  0  0  0
    0.3167    0.5042   -3.1832 C   0  0  0  0  0  0
   -3.0342    0.4150    0.8476 C   0  0  0  0  0  0
    0.7962   -0.7008   -3.7287 C   0  0  0  0  0  0
    0.2846   -3.4512    3.2005 C   0  0  0  0  0  0
   -2.8374   -0.2647   -0.3756 C   0  0  0  0  0  0
   -4.1236    1.3024    0.9756 C   0  0  0  0  0  0
   -3.7062   -0.0502   -1.4629 C   0  0  0  0  0  0
   -4.9995    1.5120   -0.1070 C   0  0  0  0  0  0
   -4.7934    0.8405   -1.3281 C   0  0  0  0  0  0
    4.7124    1.9041    2.1095 H   0  0  0  0  0  0
    3.2670    2.4226    1.2658 H   0  0  0  0  0  0
    4.7724   -0.5790   -1.0068 H   0  0  0  0  0  0
    3.6489    0.7351   -1.3845 H   0  0  0  0  0  0
    5.9382    3.1257    0.5194 H   0  0  0  0  0  0
    5.7540    1.7745   -1.8678 H   0  0  0  0  0  0
    6.4978    1.0371   -0.4524 H   0  0  0  0  0  0
    2.9600   -1.2610    1.0232 H   0  0  0  0  0  0
    2.7309   -0.0211    2.2113 H   0  0  0  0  0  0
    1.5098    1.3504    0.4812 H   0  0  0  0  0  0
   -0.7853   -2.0245    1.1242 H   0  0  0  0  0  0
    0.9026   -2.1935    0.8853 H   0  0  0  0  0  0
    4.0791    4.2334   -0.1132 H   0  0  0  0  0  0
    2.2827   -2.0169   -0.9609 H   0  0  0  0  0  0
    0.1690    1.7305   -1.4200 H   0  0  0  0  0  0
    1.3745   -1.6864    3.2901 H   0  0  0  0  0  0
   -0.3415   -1.5116    3.5978 H   0  0  0  0  0  0
   -2.1241   -0.8303    2.3411 H   0  0  0  0  0  0
   -2.4181    0.7908    2.8726 H   0  0  0  0  0  0
    1.8721   -2.5308   -3.3340 H   0  0  0  0  0  0
   -0.2365    1.1950   -3.8024 H   0  0  0  0  0  0
    0.6141   -0.9345   -4.7674 H   0  0  0  0  0  0
   -2.0076   -0.9447   -0.4956 H   0  0  0  0  0  0
   -4.2904    1.8311    1.9029 H   0  0  0  0  0  0
   -5.8297    2.1948   -0.0007 H   0  0  0  0  0  0
    4.0486    0.5018    0.6942 N   0  3  2  0  0  0
    4.7895    0.0126    1.1761 H   0  0  0  0  0  0
  1 27  1  0  0  0
  2 29  1  0  0  0
  3  9  1  0  0  0
  3 42  1  0  0  0
  4 15  2  0  0  0
  5 12  1  0  0  0
  5 14  1  0  0  0
  5 15  1  0  0  0
  6 24  3  0  0  0
  7  9  1  0  0  0
  7 30  1  0  0  0
  7 31  1  0  0  0
  7 55  1  0  0  0
  8 10  1  0  0  0
  8 32  1  0  0  0
  8 33  1  0  0  0
  8 55  1  0  0  0
  9 10  1  0  0  0
  9 34  1  0  0  0
 10 35  1  0  0  0
 10 36  1  0  0  0
 11 12  1  0  0  0
 11 37  1  0  0  0
 11 38  1  0  0  0
 11 55  1  0  0  0
 12 13  1  0  0  0
 12 39  1  0  0  0
 13 16  2  0  0  0
 13 17  1  0  0  0
 14 18  1  0  0  0
 14 40  1  0  0  0
 14 41  1  0  0  0
 15 19  1  0  0  0
 16 20  1  0  0  0
 16 43  1  0  0  0
 17 21  2  0  0  0
 17 44  1  0  0  0
 18 24  1  0  0  0
 18 45  1  0  0  0
 18 46  1  0  0  0
 19 22  1  0  0  0
 19 47  1  0  0  0
 19 48  1  0  0  0
 20 23  2  0  0  0
 20 49  1  0  0  0
 21 23  1  0  0  0
 21 50  1  0  0  0
 22 25  2  0  0  0
 22 26  1  0  0  0
 23 51  1  0  0  0
 25 27  1  0  0  0
 25 52  1  0  0  0
 26 28  2  0  0  0
 26 53  1  0  0  0
 27 29  2  0  0  0
 28 29  1  0  0  0
 28 54  1  0  0  0
 55 56  1  0  0  0
M  CHG  1  55   1
M  END
> <LID>
L014575

> <PC_CID>
18939026

> <Names>


> <CAS_Numbers>


$$$$
15132408
                    3D
 Structure written by MMmdl.
 51 54  0  0  1  0            999 V2000
    3.0991    3.9306   -0.5636 Cl  0  0  0  0  0  0
    5.4228    3.0674    1.4371 Cl  0  0  0  0  0  0
   -0.2398   -1.2347    1.0591 O   0  0  0  0  0  0
    4.1202   -2.4675    1.7977 O   0  0  0  0  0  0
   -0.7676   -0.3364   -0.9658 N   0  0  0  0  0  0
   -2.2331   -0.1651   -0.7603 C   0  0  2  0  0  0
   -2.6846    0.0891    0.7081 C   0  0  0  0  0  0
   -2.9041   -1.3751   -1.4580 C   0  0  0  0  0  0
   -2.5500   -1.4164   -2.9584 C   0  0  0  0  0  0
   -0.4459   -0.1227   -2.3886 C   0  0  0  0  0  0
   -1.0359   -1.2869   -3.2037 C   0  0  0  0  0  0
   -4.2157    1.4268    2.1407 C   0  0  0  0  0  0
   -5.1951   -0.1524    0.6359 C   0  0  0  0  0  0
   -5.5016    0.8757    2.7609 C   0  0  0  0  0  0
   -6.2890    0.3726    1.5619 C   0  0  0  0  0  0
    1.5719   -1.1789   -0.4739 C   0  0  2  0  0  0
    0.0983   -0.9125   -0.0794 C   0  0  0  0  0  0
    2.2093   -2.3830    0.2835 C   0  0  0  0  0  0
    2.4504   -0.0024   -0.0903 C   0  0  0  0  0  0
    3.4706   -0.3714    0.7815 C   0  0  0  0  0  0
    3.3893   -1.8025    1.0666 C   0  0  0  0  0  0
    2.3276    1.3340   -0.5191 C   0  0  0  0  0  0
    4.4020    0.5624    1.2677 C   0  0  0  0  0  0
    3.2522    2.2904   -0.0431 C   0  0  0  0  0  0
    4.2871    1.9061    0.8486 C   0  0  0  0  0  0
   -2.5311    0.7355   -1.3000 H   0  0  0  0  0  0
   -2.6703   -0.8259    1.3015 H   0  0  0  0  0  0
   -1.9597    0.7707    1.1566 H   0  0  0  0  0  0
   -3.9857   -1.3510   -1.3710 H   0  0  0  0  0  0
   -2.5827   -2.3004   -0.9775 H   0  0  0  0  0  0
   -2.9277   -2.3336   -3.4113 H   0  0  0  0  0  0
   -3.0597   -0.5945   -3.4630 H   0  0  0  0  0  0
   -0.8871    0.8158   -2.7273 H   0  0  0  0  0  0
    0.6119    0.0069   -2.6030 H   0  0  0  0  0  0
   -0.8408   -1.1415   -4.2666 H   0  0  0  0  0  0
   -0.5393   -2.2166   -2.9227 H   0  0  0  0  0  0
   -3.3751    1.3087    2.8263 H   0  0  0  0  0  0
   -4.3222    2.4932    1.9383 H   0  0  0  0  0  0
   -4.9496   -1.1797    0.9101 H   0  0  0  0  0  0
   -5.5269   -0.1421   -0.4019 H   0  0  0  0  0  0
   -6.0441    1.6202    3.3446 H   0  0  0  0  0  0
   -5.2648    0.0398    3.4209 H   0  0  0  0  0  0
   -7.0248   -0.3883    1.8242 H   0  0  0  0  0  0
   -6.8150    1.2025    1.0877 H   0  0  0  0  0  0
    1.6852   -1.3961   -1.5334 H   0  0  0  0  0  0
    2.5789   -3.1300   -0.4192 H   0  0  0  0  0  0
    1.5232   -2.8854    0.9652 H   0  0  0  0  0  0
    1.5407    1.6315   -1.1953 H   0  0  0  0  0  0
    5.1875    0.2596    1.9450 H   0  0  0  0  0  0
   -4.0216    0.7302    0.8424 N   0  3  0  0  0  0
   -4.0720    1.4545    0.1401 H   0  0  0  0  0  0
  1 24  1  0  0  0
  2 25  1  0  0  0
  3 17  2  0  0  0
  4 21  2  0  0  0
  5  6  1  0  0  0
  5 10  1  0  0  0
  5 17  1  0  0  0
  6  7  1  0  0  0
  6  8  1  0  0  0
  6 26  1  0  0  0
  7 27  1  0  0  0
  7 28  1  0  0  0
  7 50  1  0  0  0
  8  9  1  0  0  0
  8 29  1  0  0  0
  8 30  1  0  0  0
  9 11  1  0  0  0
  9 31  1  0  0  0
  9 32  1  0  0  0
 10 11  1  0  0  0
 10 33  1  0  0  0
 10 34  1  0  0  0
 11 35  1  0  0  0
 11 36  1  0  0  0
 12 14  1  0  0  0
 12 37  1  0  0  0
 12 38  1  0  0  0
 12 50  1  0  0  0
 13 15  1  0  0  0
 13 39  1  0  0  0
 13 40  1  0  0  0
 13 50  1  0  0  0
 14 15  1  0  0  0
 14 41  1  0  0  0
 14 42  1  0  0  0
 15 43  1  0  0  0
 15 44  1  0  0  0
 16 17  1  0  0  0
 16 18  1  0  0  0
 16 19  1  0  0  0
 16 45  1  0  0  0
 18 21  1  0  0  0
 18 46  1  0  0  0
 18 47  1  0  0  0
 19 20  1  0  0  0
 19 22  2  0  0  0
 20 21  1  0  0  0
 20 23  2  0  0  0
 22 24  1  0  0  0
 22 48  1  0  0  0
 23 25  1  0  0  0
 23 49  1  0  0  0
 24 25  2  0  0  0
 50 51  1  0  0  0
M  CHG  1  50   1
M  END
> <LID>
L004486

> <PC_CID>
15132408

> <Names>


> <CAS_Numbers>


$$$$
18939025
                    3D
 Structure written by MMmdl.
 59 62  0  0  1  0            999 V2000
   -4.7989   -3.6282    1.3240 Cl  0  0  0  0  0  0
   -6.5471   -1.3280   -0.0257 Cl  0  0  0  0  0  0
    6.4203    2.4546    1.9429 O   0  0  0  0  0  0
   -0.1970    1.9606    2.0563 O   0  0  0  0  0  0
   -1.0425   -3.0499   -0.5117 O   0  0  0  0  0  0
    0.3832    0.0746    0.9284 N   0  0  0  0  0  0
    5.2859    0.8557    0.5232 C   0  0  0  0  0  0
    3.8567    2.7456    0.2414 C   0  0  0  0  0  0
    6.1471    2.1299    0.5940 C   0  0  1  0  0  0
    5.2794    3.2226   -0.0297 C   0  0  0  0  0  0
    2.8313    0.5348    0.8078 C   0  0  0  0  0  0
    1.4463    0.7659    0.1534 C   0  0  1  0  0  0
    1.4053    0.4854   -1.3529 C   0  0  0  0  0  0
    0.2313   -1.3727    0.6788 C   0  0  0  0  0  0
   -0.3358    0.7511    1.8689 C   0  0  0  0  0  0
    2.1277   -0.5816   -1.9383 C   0  0  0  0  0  0
    0.6210    1.3166   -2.1834 C   0  0  0  0  0  0
   -1.3344    0.0222    2.7904 C   0  0  0  0  0  0
   -0.8317   -1.7171   -0.3212 C   0  0  0  0  0  0
    2.0602   -0.8127   -3.3256 C   0  0  0  0  0  0
    0.5537    1.0854   -3.5706 C   0  0  0  0  0  0
   -2.6476   -0.3121    2.0982 C   0  0  0  0  0  0
    1.2731    0.0200   -4.1425 C   0  0  0  0  0  0
   -1.6811   -0.9920   -1.1139 C   0  0  0  0  0  0
   -2.4635   -1.9325   -1.8377 C   0  0  0  0  0  0
   -3.0971   -1.6490    2.0505 C   0  0  0  0  0  0
   -3.4343    0.7046    1.5145 C   0  0  0  0  0  0
   -2.0356   -3.1645   -1.4346 C   0  0  0  0  0  0
   -4.2999   -1.9758    1.3944 C   0  0  0  0  0  0
   -4.6400    0.3813    0.8632 C   0  0  0  0  0  0
   -5.0731   -0.9573    0.7955 C   0  0  0  0  0  0
    5.2833    0.3226    1.4759 H   0  0  0  0  0  0
    5.6698    0.1669   -0.2300 H   0  0  0  0  0  0
    3.1370    3.1796   -0.4533 H   0  0  0  0  0  0
    3.5624    3.0251    1.2546 H   0  0  0  0  0  0
    7.0928    2.0160    0.0627 H   0  0  0  0  0  0
    5.4801    4.2195    0.3654 H   0  0  0  0  0  0
    5.4510    3.2538   -1.1066 H   0  0  0  0  0  0
    3.0759   -0.5275    0.7985 H   0  0  0  0  0  0
    2.8055    0.8267    1.8590 H   0  0  0  0  0  0
    1.2758    1.8414    0.2041 H   0  0  0  0  0  0
    1.1761   -1.7893    0.3348 H   0  0  0  0  0  0
    0.0447   -1.9172    1.6025 H   0  0  0  0  0  0
    7.0070    1.8057    2.3019 H   0  0  0  0  0  0
    2.7339   -1.2393   -1.3344 H   0  0  0  0  0  0
    0.0577    2.1342   -1.7573 H   0  0  0  0  0  0
   -0.8821   -0.8629    3.2362 H   0  0  0  0  0  0
   -1.5676    0.6742    3.6334 H   0  0  0  0  0  0
    2.6107   -1.6323   -3.7637 H   0  0  0  0  0  0
   -0.0527    1.7243   -4.1957 H   0  0  0  0  0  0
    1.2201   -0.1593   -5.2064 H   0  0  0  0  0  0
   -1.7401    0.0851   -1.1609 H   0  0  0  0  0  0
   -3.2434   -1.7331   -2.5577 H   0  0  0  0  0  0
   -2.5075   -2.4350    2.4994 H   0  0  0  0  0  0
   -3.1116    1.7349    1.5557 H   0  0  0  0  0  0
   -2.3167   -4.1762   -1.6872 H   0  0  0  0  0  0
   -5.2313    1.1633    0.4101 H   0  0  0  0  0  0
    3.9211    1.2739    0.1229 N   0  3  2  0  0  0
    3.8467    1.0668   -0.8634 H   0  0  0  0  0  0
  1 29  1  0  0  0
  2 31  1  0  0  0
  3  9  1  0  0  0
  3 44  1  0  0  0
  4 15  2  0  0  0
  5 19  1  0  0  0
  5 28  1  0  0  0
  6 12  1  0  0  0
  6 14  1  0  0  0
  6 15  1  0  0  0
  7  9  1  0  0  0
  7 32  1  0  0  0
  7 33  1  0  0  0
  7 58  1  0  0  0
  8 10  1  0  0  0
  8 34  1  0  0  0
  8 35  1  0  0  0
  8 58  1  0  0  0
  9 10  1  0  0  0
  9 36  1  0  0  0
 10 37  1  0  0  0
 10 38  1  0  0  0
 11 12  1  0  0  0
 11 39  1  0  0  0
 11 40  1  0  0  0
 11 58  1  0  0  0
 12 13  1  0  0  0
 12 41  1  0  0  0
 13 16  2  0  0  0
 13 17  1  0  0  0
 14 19  1  0  0  0
 14 42  1  0  0  0
 14 43  1  0  0  0
 15 18  1  0  0  0
 16 20  1  0  0  0
 16 45  1  0  0  0
 17 21  2  0  0  0
 17 46  1  0  0  0
 18 22  1  0  0  0
 18 47  1  0  0  0
 18 48  1  0  0  0
 19 24  2  0  0  0
 20 23  2  0  0  0
 20 49  1  0  0  0
 21 23  1  0  0  0
 21 50  1  0  0  0
 22 26  2  0  0  0
 22 27  1  0  0  0
 23 51  1  0  0  0
 24 25  1  0  0  0
 24 52  1  0  0  0
 25 28  2  0  0  0
 25 53  1  0  0  0
 26 29  1  0  0  0
 26 54  1  0  0  0
 27 30  2  0  0  0
 27 55  1  0  0  0
 28 56  1  0  0  0
 29 31  2  0  0  0
 30 31  1  0  0  0
 30 57  1  0  0  0
 58 59  1  0  0  0
M  CHG  1  58   1
M  END
> <LID>
L014578

> <PC_CID>
18939025

> <Names>


> <CAS_Numbers>


$$$$
18915119
                    3D
 Structure written by MMmdl.
 53 56  0  0  1  0            999 V2000
   -2.6206    1.1757    3.0807 S   0  0  0  0  0  0
    0.4335   -0.5102   -0.4864 O   0  0  0  0  0  0
   -0.9294    1.0623    0.4417 N   0  0  0  0  0  0
   -2.1995    0.2895    0.4821 C   0  0  1  0  0  0
   -2.3569   -0.8432   -0.5689 C   0  0  0  0  0  0
    1.5693    1.3970    0.3770 C   0  0  1  0  0  0
   -3.8488   -2.6700   -1.3500 C   0  0  0  0  0  0
   -4.7608   -0.4722   -1.1813 C   0  0  0  0  0  0
    2.0136    2.2544   -0.8407 C   0  0  0  0  0  0
    0.2909    0.5785    0.0701 C   0  0  0  0  0  0
   -2.3972   -0.2134    1.9287 C   0  0  0  0  0  0
   -5.3127   -2.7569   -1.7676 C   0  0  0  0  0  0
   -5.6547   -1.3096   -2.1062 C   0  0  0  0  0  0
   -1.1028    2.3724    1.0941 C   0  0  0  0  0  0
    2.7590    0.4919    0.6089 C   0  0  0  0  0  0
    3.2638    1.5848   -1.4596 C   0  0  0  0  0  0
    3.6982    0.6004   -0.4102 C   0  0  0  0  0  0
   -1.1825    2.1864    2.6191 C   0  0  0  0  0  0
    2.9704   -0.3694    1.7014 C   0  0  0  0  0  0
    4.8866   -0.1504   -0.3937 C   0  0  0  0  0  0
    5.1146   -1.0246    0.6940 C   0  0  0  0  0  0
    4.1586   -1.1317    1.7344 C   0  0  0  0  0  0
    6.3819   -1.8525    0.7452 C   0  0  0  0  0  0
   -3.0061    0.9915    0.2679 H   0  0  0  0  0  0
   -2.0679   -0.4965   -1.5626 H   0  0  0  0  0  0
   -1.7023   -1.6764   -0.3114 H   0  0  0  0  0  0
    1.4685    2.0021    1.2766 H   0  0  0  0  0  0
   -3.2153   -2.6488   -2.2387 H   0  0  0  0  0  0
   -3.5373   -3.5131   -0.7324 H   0  0  0  0  0  0
   -4.3145    0.3553   -1.7353 H   0  0  0  0  0  0
   -5.3357   -0.0460   -0.3584 H   0  0  0  0  0  0
    1.2260    2.4151   -1.5783 H   0  0  0  0  0  0
    2.2970    3.2414   -0.4731 H   0  0  0  0  0  0
   -3.2771   -0.8511    2.0094 H   0  0  0  0  0  0
   -1.5425   -0.8116    2.2475 H   0  0  0  0  0  0
   -5.4769   -3.4393   -2.6022 H   0  0  0  0  0  0
   -5.9207   -3.0971   -0.9280 H   0  0  0  0  0  0
   -5.3961   -1.1075   -3.1466 H   0  0  0  0  0  0
   -6.7152   -1.0891   -1.9801 H   0  0  0  0  0  0
   -0.3258    3.0878    0.8281 H   0  0  0  0  0  0
   -2.0163    2.8521    0.7404 H   0  0  0  0  0  0
    4.0506    2.3058   -1.6834 H   0  0  0  0  0  0
    3.0115    1.0463   -2.3736 H   0  0  0  0  0  0
   -1.2608    3.1531    3.1169 H   0  0  0  0  0  0
   -0.2782    1.7067    2.9950 H   0  0  0  0  0  0
    2.2407   -0.4486    2.4937 H   0  0  0  0  0  0
    5.6058   -0.0582   -1.1944 H   0  0  0  0  0  0
    4.3361   -1.8015    2.5631 H   0  0  0  0  0  0
    6.2130   -2.8265    0.2857 H   0  0  0  0  0  0
    7.1935   -1.3566    0.2119 H   0  0  0  0  0  0
    6.7019   -2.0089    1.7758 H   0  0  0  0  0  0
   -3.7355   -1.3888   -0.6240 N   0  3  0  0  0  0
   -4.0199   -1.5877    0.3246 H   0  0  0  0  0  0
  1 11  1  0  0  0
  1 18  1  0  0  0
  2 10  2  0  0  0
  3  4  1  0  0  0
  3 10  1  0  0  0
  3 14  1  0  0  0
  4  5  1  0  0  0
  4 11  1  0  0  0
  4 24  1  0  0  0
  5 25  1  0  0  0
  5 26  1  0  0  0
  5 52  1  0  0  0
  6  9  1  0  0  0
  6 10  1  0  0  0
  6 15  1  0  0  0
  6 27  1  0  0  0
  7 12  1  0  0  0
  7 28  1  0  0  0
  7 29  1  0  0  0
  7 52  1  0  0  0
  8 13  1  0  0  0
  8 30  1  0  0  0
  8 31  1  0  0  0
  8 52  1  0  0  0
  9 16  1  0  0  0
  9 32  1  0  0  0
  9 33  1  0  0  0
 11 34  1  0  0  0
 11 35  1  0  0  0
 12 13  1  0  0  0
 12 36  1  0  0  0
 12 37  1  0  0  0
 13 38  1  0  0  0
 13 39  1  0  0  0
 14 18  1  0  0  0
 14 40  1  0  0  0
 14 41  1  0  0  0
 15 17  2  0  0  0
 15 19  1  0  0  0
 16 17  1  0  0  0
 16 42  1  0  0  0
 16 43  1  0  0  0
 17 20  1  0  0  0
 18 44  1  0  0  0
 18 45  1  0  0  0
 19 22  2  0  0  0
 19 46  1  0  0  0
 20 21  2  0  0  0
 20 47  1  0  0  0
 21 22  1  0  0  0
 21 23  1  0  0  0
 22 48  1  0  0  0
 23 49  1  0  0  0
 23 50  1  0  0  0
 23 51  1  0  0  0
 52 53  1  0  0  0
M  CHG  1  52   1
M  END
> <LID>
L004489

> <PC_CID>
18915119

> <Names>


> <CAS_Numbers>


$$$$
44213762
                    3D
 Structure written by MMmdl.
 71 76  0  0  1  0            999 V2000
   10.9228   -2.3502   -0.7526 O   0  0  0  0  0  0
    6.1196    1.7615    0.1549 O   0  0  0  0  0  0
    6.6892   -0.4333   -0.0139 N   0  0  0  0  0  0
   10.9836   -0.9221   -0.8086 C   0  0  2  0  0  0
    9.0741   -0.6855    0.9098 C   0  0  2  0  0  0
   10.5496   -0.3771    0.5680 C   0  0  0  0  0  0
    8.1334   -0.1747   -0.2329 C   0  0  1  0  0  0
   10.0412   -0.4098   -1.9142 C   0  0  0  0  0  0
    8.5731   -0.7345   -1.6059 C   0  0  0  0  0  0
   12.4573   -0.5939   -1.1100 C   0  0  0  0  0  0
   13.1887   -1.8521   -0.6971 C   0  0  0  0  0  0
    7.6919   -0.8459    3.0447 C   0  0  0  0  0  0
    8.6849    1.2781    2.4978 C   0  0  0  0  0  0
   12.1804   -2.9200   -1.0899 C   0  0  0  0  0  0
    6.8952    0.2734    3.7231 C   0  0  0  0  0  0
    7.8738    1.4420    3.7811 C   0  0  0  0  0  0
    5.7894    0.5756    0.1258 C   0  0  0  0  0  0
    4.3492    0.2105    0.2958 C   0  0  1  0  0  0
    6.2681   -1.8396   -0.0812 C   0  0  0  0  0  0
    3.3583    1.0943   -0.4476 C   0  0  0  0  0  0
    3.4783   -0.1009   -0.9082 C   0  0  0  0  0  0
    2.4806   -1.1195   -1.2846 C   0  0  0  0  0  0
    2.2150    1.8786    0.0472 C   0  0  0  0  0  0
    1.2418   -0.7491   -1.8543 C   0  0  0  0  0  0
    2.3043    3.2842   -0.0147 C   0  0  0  0  0  0
    2.7753   -2.4857   -1.0936 C   0  0  0  0  0  0
    1.0623    1.2744    0.5969 C   0  0  0  0  0  0
    1.2409    4.0825    0.4499 C   0  0  0  0  0  0
    0.3027   -1.7351   -2.2137 C   0  0  0  0  0  0
   -0.0002    2.0740    1.0612 C   0  0  0  0  0  0
    1.8353   -3.4713   -1.4531 C   0  0  0  0  0  0
    0.0873    3.4775    0.9852 C   0  0  0  0  0  0
    0.5983   -3.0967   -2.0115 C   0  0  0  0  0  0
    8.9968   -1.7716    0.9635 H   0  0  0  0  0  0
   11.1990   -0.7883    1.3422 H   0  0  0  0  0  0
   10.7069    0.7022    0.5819 H   0  0  0  0  0  0
    8.3064    0.8977   -0.3211 H   0  0  0  0  0  0
   10.3155   -0.8486   -2.8743 H   0  0  0  0  0  0
   10.1584    0.6691   -2.0248 H   0  0  0  0  0  0
    7.9409   -0.3216   -2.3931 H   0  0  0  0  0  0
    8.4440   -1.8159   -1.6482 H   0  0  0  0  0  0
   12.6048   -0.4321   -2.1790 H   0  0  0  0  0  0
   12.8204    0.2950   -0.5929 H   0  0  0  0  0  0
   14.1526   -1.9714   -1.1925 H   0  0  0  0  0  0
   13.3507   -1.8623    0.3815 H   0  0  0  0  0  0
    8.1519   -1.4881    3.7964 H   0  0  0  0  0  0
    7.0530   -1.4818    2.4378 H   0  0  0  0  0  0
    9.6707    1.7375    2.5742 H   0  0  0  0  0  0
    8.1579    1.7681    1.6842 H   0  0  0  0  0  0
   12.3438   -3.8671   -0.5755 H   0  0  0  0  0  0
   12.2126   -3.1022   -2.1650 H   0  0  0  0  0  0
    6.0382    0.5451    3.1060 H   0  0  0  0  0  0
    6.5184   -0.0124    4.7056 H   0  0  0  0  0  0
    7.3758    2.4099    3.8465 H   0  0  0  0  0  0
    8.5250    1.3378    4.6501 H   0  0  0  0  0  0
    4.0689   -0.1362    1.2885 H   0  0  0  0  0  0
    7.0956   -2.5326    0.0624 H   0  0  0  0  0  0
    5.8386   -2.0498   -1.0609 H   0  0  0  0  0  0
    5.5313   -2.0859    0.6841 H   0  0  0  0  0  0
    3.1874    3.7545   -0.4230 H   0  0  0  0  0  0
    1.0075    0.2907   -2.0289 H   0  0  0  0  0  0
    0.9883    0.2008    0.6820 H   0  0  0  0  0  0
    3.7142   -2.7909   -0.6611 H   0  0  0  0  0  0
   -0.6432   -1.4466   -2.6480 H   0  0  0  0  0  0
    1.3106    5.1590    0.3964 H   0  0  0  0  0  0
   -0.8809    1.6102    1.4806 H   0  0  0  0  0  0
    2.0633   -4.5159   -1.2995 H   0  0  0  0  0  0
   -0.7277    4.0898    1.3423 H   0  0  0  0  0  0
   -0.1217   -3.8530   -2.2875 H   0  0  0  0  0  0
    8.7827   -0.1855    2.2883 N   0  3  0  0  0  0
    9.6026   -0.4492    2.8161 H   0  0  0  0  0  0
  1  4  1  0  0  0
  1 14  1  0  0  0
  2 17  2  0  0  0
  3  7  1  0  0  0
  3 17  1  0  0  0
  3 19  1  0  0  0
  4  6  1  0  0  0
  4  8  1  0  0  0
  4 10  1  0  0  0
  5  6  1  0  0  0
  5  7  1  0  0  0
  5 34  1  0  0  0
  5 70  1  0  0  0
  6 35  1  0  0  0
  6 36  1  0  0  0
  7  9  1  0  0  0
  7 37  1  0  0  0
  8  9  1  0  0  0
  8 38  1  0  0  0
  8 39  1  0  0  0
  9 40  1  0  0  0
  9 41  1  0  0  0
 10 11  1  0  0  0
 10 42  1  0  0  0
 10 43  1  0  0  0
 11 14  1  0  0  0
 11 44  1  0  0  0
 11 45  1  0  0  0
 12 15  1  0  0  0
 12 46  1  0  0  0
 12 47  1  0  0  0
 12 70  1  0  0  0
 13 16  1  0  0  0
 13 48  1  0  0  0
 13 49  1  0  0  0
 13 70  1  0  0  0
 14 50  1  0  0  0
 14 51  1  0  0  0
 15 16  1  0  0  0
 15 52  1  0  0  0
 15 53  1  0  0  0
 16 54  1  0  0  0
 16 55  1  0  0  0
 17 18  1  0  0  0
 18 20  1  0  0  0
 18 21  1  0  0  0
 18 56  1  0  0  0
 19 57  1  0  0  0
 19 58  1  0  0  0
 19 59  1  0  0  0
 20 21  2  0  0  0
 20 23  1  0  0  0
 21 22  1  0  0  0
 22 24  2  0  0  0
 22 26  1  0  0  0
 23 25  2  0  0  0
 23 27  1  0  0  0
 24 29  1  0  0  0
 24 61  1  0  0  0
 25 28  1  0  0  0
 25 60  1  0  0  0
 26 31  2  0  0  0
 26 63  1  0  0  0
 27 30  2  0  0  0
 27 62  1  0  0  0
 28 32  2  0  0  0
 28 65  1  0  0  0
 29 33  2  0  0  0
 29 64  1  0  0  0
 30 32  1  0  0  0
 30 66  1  0  0  0
 31 33  1  0  0  0
 31 67  1  0  0  0
 32 68  1  0  0  0
 33 69  1  0  0  0
 70 71  1  0  0  0
M  CHG  1  70   1
M  END
> <LID>
L015884

> <PC_CID>
44213762

> <Names>


> <CAS_Numbers>


$$$$
44212828
                    3D
 Structure written by MMmdl.
 47 50  0  0  1  0            999 V2000
    6.1171    1.9511   -1.3822 Cl  0  0  0  0  0  0
    7.3091    0.5454    1.2204 Cl  0  0  0  0  0  0
    0.9793    0.6555    0.4388 O   0  0  0  0  0  0
   -0.5681   -0.6429   -0.5823 N   0  0  0  0  0  0
   -2.7612   -2.1992   -0.0296 N   0  0  0  0  0  0
   -3.8303   -0.7630    1.2238 N   0  0  0  0  0  0
   -3.8324   -2.8560    0.4688 N   0  0  0  0  0  0
   -4.4720   -1.9926    1.2085 N   0  0  0  0  0  0
   -1.7045    0.0485    0.0870 C   0  0  1  0  0  0
   -2.2204    1.2067   -0.7990 C   0  0  0  0  0  0
   -4.0202    2.9115   -1.0708 C   0  0  0  0  0  0
   -2.8865    2.7782    1.0286 C   0  0  0  0  0  0
   -4.1738    4.2486   -0.3346 C   0  0  0  0  0  0
   -3.9007    3.9126    1.1271 C   0  0  0  0  0  0
   -2.7797   -0.9515    0.4357 C   0  0  0  0  0  0
   -0.9485   -1.6951   -1.5534 C   0  0  0  0  0  0
   -1.7570   -2.8088   -0.8654 C   0  0  0  0  0  0
    0.7138   -0.2909   -0.3054 C   0  0  0  0  0  0
    1.8692   -1.0980   -0.9299 C   0  0  0  0  0  0
    3.2329   -0.6823   -0.3967 C   0  0  0  0  0  0
    3.9747    0.3240   -1.0509 C   0  0  0  0  0  0
    3.7647   -1.3028    0.7531 C   0  0  0  0  0  0
    5.2367    0.7128   -0.5594 C   0  0  0  0  0  0
    5.0259   -0.9165    1.2458 C   0  0  0  0  0  0
    5.7646    0.0904    0.5934 C   0  0  0  0  0  0
   -1.3731    0.4570    1.0428 H   0  0  0  0  0  0
   -1.4014    1.8760   -1.0675 H   0  0  0  0  0  0
   -2.6060    0.7981   -1.7340 H   0  0  0  0  0  0
   -4.9941    2.4786   -1.3019 H   0  0  0  0  0  0
   -3.4906    3.0538   -2.0142 H   0  0  0  0  0  0
   -1.8890    3.1921    0.8711 H   0  0  0  0  0  0
   -2.8603    2.1671    1.9314 H   0  0  0  0  0  0
   -5.1530    4.7039   -0.4861 H   0  0  0  0  0  0
   -3.4216    4.9528   -0.6931 H   0  0  0  0  0  0
   -3.5311    4.7650    1.6981 H   0  0  0  0  0  0
   -4.8144    3.5558    1.6047 H   0  0  0  0  0  0
   -0.1137   -2.1397   -2.0917 H   0  0  0  0  0  0
   -1.5633   -1.2333   -2.3267 H   0  0  0  0  0  0
   -2.2356   -3.4601   -1.5977 H   0  0  0  0  0  0
   -1.1124   -3.4241   -0.2366 H   0  0  0  0  0  0
    1.7269   -2.1602   -0.7266 H   0  0  0  0  0  0
    1.8591   -0.9684   -2.0129 H   0  0  0  0  0  0
    3.5739    0.8045   -1.9315 H   0  0  0  0  0  0
    3.2057   -2.0741    1.2627 H   0  0  0  0  0  0
    5.4269   -1.3941    2.1277 H   0  0  0  0  0  0
   -3.3012    1.9936   -0.1547 N   0  3  0  0  0  0
   -3.9946    1.3346    0.1733 H   0  0  0  0  0  0
  1 23  1  0  0  0
  2 25  1  0  0  0
  3 18  2  0  0  0
  4  9  1  0  0  0
  4 16  1  0  0  0
  4 18  1  0  0  0
  5  7  1  0  0  0
  5 15  1  0  0  0
  5 17  1  0  0  0
  6  8  1  0  0  0
  6 15  2  0  0  0
  7  8  2  0  0  0
  9 10  1  0  0  0
  9 15  1  0  0  0
  9 26  1  0  0  0
 10 27  1  0  0  0
 10 28  1  0  0  0
 10 46  1  0  0  0
 11 13  1  0  0  0
 11 29  1  0  0  0
 11 30  1  0  0  0
 11 46  1  0  0  0
 12 14  1  0  0  0
 12 31  1  0  0  0
 12 32  1  0  0  0
 12 46  1  0  0  0
 13 14  1  0  0  0
 13 33  1  0  0  0
 13 34  1  0  0  0
 14 35  1  0  0  0
 14 36  1  0  0  0
 16 17  1  0  0  0
 16 37  1  0  0  0
 16 38  1  0  0  0
 17 39  1  0  0  0
 17 40  1  0  0  0
 18 19  1  0  0  0
 19 20  1  0  0  0
 19 41  1  0  0  0
 19 42  1  0  0  0
 20 21  2  0  0  0
 20 22  1  0  0  0
 21 23  1  0  0  0
 21 43  1  0  0  0
 22 24  2  0  0  0
 22 44  1  0  0  0
 23 25  2  0  0  0
 24 25  1  0  0  0
 24 45  1  0  0  0
 46 47  1  0  0  0
M  CHG  1  46   1
M  END
> <LID>
L013602

> <PC_CID>
44212828

> <Names>


> <CAS_Numbers>


$$$$
273032
                    3D
 Structure written by MMmdl.
 43 47  0  0  1  0            999 V2000
    2.0413    0.4339    1.1642 O   0  0  0  0  0  0
    2.4802    3.2868    0.1348 O   0  0  0  0  0  0
    3.6096   -2.0133    0.5481 O   0  0  0  0  0  0
   -0.2405    0.6834    0.6008 C   0  0  1  0  0  0
   -1.2499    1.3338   -0.3610 C   0  0  2  0  0  0
    1.0750    1.4730    0.8949 C   0  0  2  0  0  0
   -2.3242    0.2644   -0.6759 C   0  0  1  0  0  0
   -0.9993    0.3752    1.9166 C   0  0  0  0  0  0
    0.3171   -0.5826    0.0323 C   0  0  0  0  0  0
   -0.5697    1.9526   -1.5923 C   0  0  0  0  0  0
    1.6016    2.2805   -0.3248 C   0  0  1  0  0  0
   -1.7133   -1.0157   -1.3281 C   0  0  0  0  0  0
    0.4897    2.9648   -1.1391 C   0  0  0  0  0  0
   -2.2264   -0.5311    1.6900 C   0  0  0  0  0  0
   -0.3523   -1.4837   -0.8078 C   0  0  0  0  0  0
    1.6190   -0.6730    0.4805 C   0  0  0  0  0  0
   -4.3152   -0.8121    0.3958 C   0  0  0  0  0  0
    0.3724   -2.6432   -1.1570 C   0  0  0  0  0  0
    2.3222   -1.8437    0.1318 C   0  0  0  0  0  0
    1.6926   -2.8291   -0.6713 C   0  0  0  0  0  0
   -1.7359    2.1639    0.1559 H   0  0  0  0  0  0
    0.9423    2.1320    1.7545 H   0  0  0  0  0  0
   -3.0450    0.6927   -1.3740 H   0  0  0  0  0  0
   -1.3271    1.3107    2.3722 H   0  0  0  0  0  0
   -0.3339   -0.0926    2.6437 H   0  0  0  0  0  0
   -1.3130    2.4506   -2.2156 H   0  0  0  0  0  0
   -0.1055    1.1864   -2.2141 H   0  0  0  0  0  0
    2.1565    1.6227   -0.9954 H   0  0  0  0  0  0
   -1.5655   -0.8110   -2.3889 H   0  0  0  0  0  0
   -2.4075   -1.8541   -1.3004 H   0  0  0  0  0  0
    0.9200    3.4572   -2.0121 H   0  0  0  0  0  0
    0.0166    3.7486   -0.5453 H   0  0  0  0  0  0
   -1.9139   -1.5539    1.4762 H   0  0  0  0  0  0
   -2.8146   -0.5794    2.6071 H   0  0  0  0  0  0
   -4.9141   -0.7944    1.3069 H   0  0  0  0  0  0
   -4.9258   -0.3975   -0.4069 H   0  0  0  0  0  0
   -4.1001   -1.8550    0.1629 H   0  0  0  0  0  0
   -0.0691   -3.3804   -1.8114 H   0  0  0  0  0  0
    2.8544    3.7267   -0.6133 H   0  0  0  0  0  0
    2.2381   -3.7198   -0.9468 H   0  0  0  0  0  0
    3.9201   -1.2850    1.0647 H   0  0  0  0  0  0
   -3.0774   -0.0208    0.5842 N   0  3  2  0  0  0
   -3.3981    0.8848    0.8965 H   0  0  0  0  0  0
  1  6  1  0  0  0
  1 16  1  0  0  0
  2 11  1  0  0  0
  2 39  1  0  0  0
  3 19  1  0  0  0
  3 41  1  0  0  0
  4  5  1  0  0  0
  4  6  1  0  0  0
  4  8  1  0  0  0
  4  9  1  0  0  0
  5  7  1  0  0  0
  5 10  1  0  0  0
  5 21  1  0  0  0
  6 11  1  0  0  0
  6 22  1  0  0  0
  7 12  1  0  0  0
  7 23  1  0  0  0
  7 42  1  0  0  0
  8 14  1  0  0  0
  8 24  1  0  0  0
  8 25  1  0  0  0
  9 15  2  0  0  0
  9 16  1  0  0  0
 10 13  1  0  0  0
 10 26  1  0  0  0
 10 27  1  0  0  0
 11 13  1  0  0  0
 11 28  1  0  0  0
 12 15  1  0  0  0
 12 29  1  0  0  0
 12 30  1  0  0  0
 13 31  1  0  0  0
 13 32  1  0  0  0
 14 33  1  0  0  0
 14 34  1  0  0  0
 14 42  1  0  0  0
 15 18  1  0  0  0
 16 19  2  0  0  0
 17 35  1  0  0  0
 17 36  1  0  0  0
 17 37  1  0  0  0
 17 42  1  0  0  0
 18 20  2  0  0  0
 18 38  1  0  0  0
 19 20  1  0  0  0
 20 40  1  0  0  0
 42 43  1  0  0  0
M  CHG  1  42   1
M  END
> <LID>
L000955

> <PC_CID>
273032

> <Names>
Dihydromorphine

> <CAS_Numbers>
1421-28-9;509-60-4

$$$$
44214495
                    3D
 Structure written by MMmdl.
 60 62  0  0  1  0            999 V2000
   -3.1031   -4.7097   -1.7531 O   0  0  0  0  0  0
    5.0450    2.6181    0.7789 O   0  0  0  0  0  0
   -0.6943    0.0554    2.0136 N   0  0  0  0  0  0
    4.6734    1.4360   -1.1213 N   0  0  0  0  0  0
   -2.8213   -3.5332    0.3713 C   0  0  0  0  0  0
   -3.7776   -4.0442   -0.7064 C   0  0  1  0  0  0
   -4.5605   -1.8969    0.0660 C   0  0  0  0  0  0
   -4.4542   -2.7642   -1.1938 C   0  0  0  0  0  0
   -2.7697   -1.4304    1.8115 C   0  0  0  0  0  0
   -1.5264   -0.7818    1.1217 C   0  0  1  0  0  0
   -1.8839   -0.0407   -0.1640 C   0  0  0  0  0  0
    0.5060    0.5405    1.5910 C   0  0  0  0  0  0
   -1.2883    0.5386    3.2631 C   0  0  0  0  0  0
   -2.5859    1.1846   -0.1143 C   0  0  0  0  0  0
   -1.4996   -0.5679   -1.4163 C   0  0  0  0  0  0
    1.0070    1.8109    1.9694 C   0  0  0  0  0  0
   -2.9111    1.8657   -1.3030 C   0  0  0  0  0  0
   -1.8256    0.1137   -2.6044 C   0  0  0  0  0  0
   -2.5328    1.3295   -2.5483 C   0  0  0  0  0  0
    2.2563    2.2482    1.4833 C   0  0  0  0  0  0
    2.9980    1.4212    0.6120 C   0  0  0  0  0  0
    2.4616    0.1597    0.2715 C   0  0  0  0  0  0
    4.3406    1.8647    0.1073 C   0  0  0  0  0  0
    5.9139    1.7660   -1.8135 C   0  0  0  0  0  0
    7.0731    0.8663   -1.3554 C   0  0  0  0  0  0
    8.3801    1.1740   -2.0938 C   0  0  0  0  0  0
   -2.5431   -4.3066    1.0879 H   0  0  0  0  0  0
   -1.9112   -3.1783   -0.1075 H   0  0  0  0  0  0
   -4.5206   -4.7100   -0.2645 H   0  0  0  0  0  0
   -4.4377   -0.8410   -0.1664 H   0  0  0  0  0  0
   -5.5452   -2.0087    0.5210 H   0  0  0  0  0  0
   -5.4204   -2.9485   -1.6645 H   0  0  0  0  0  0
   -3.8214   -2.2610   -1.9264 H   0  0  0  0  0  0
   -3.4611   -0.6634    2.1636 H   0  0  0  0  0  0
   -2.4330   -1.9728    2.6954 H   0  0  0  0  0  0
   -0.8730   -1.6067    0.8433 H   0  0  0  0  0  0
   -2.7487   -5.5220   -1.4236 H   0  0  0  0  0  0
   -0.5528    1.0217    3.9058 H   0  0  0  0  0  0
   -2.0825    1.2570    3.0593 H   0  0  0  0  0  0
   -1.7007   -0.2746    3.8583 H   0  0  0  0  0  0
   -2.8837    1.6057    0.8344 H   0  0  0  0  0  0
   -0.9530   -1.4974   -1.4760 H   0  0  0  0  0  0
    0.4450    2.4696    2.6145 H   0  0  0  0  0  0
   -3.4513    2.8001   -1.2598 H   0  0  0  0  0  0
   -1.5322   -0.2960   -3.5598 H   0  0  0  0  0  0
   -2.7825    1.8521   -3.4602 H   0  0  0  0  0  0
    2.6347    3.2176    1.7752 H   0  0  0  0  0  0
    2.9526   -0.5600   -0.3681 H   0  0  0  0  0  0
    4.0184    0.8510   -1.6188 H   0  0  0  0  0  0
    5.7474    1.6400   -2.8837 H   0  0  0  0  0  0
    6.1619    2.8178   -1.6606 H   0  0  0  0  0  0
    7.2343    0.9866   -0.2834 H   0  0  0  0  0  0
    6.8100   -0.1804   -1.5125 H   0  0  0  0  0  0
    9.1834    0.5222   -1.7496 H   0  0  0  0  0  0
    8.2699    1.0267   -3.1686 H   0  0  0  0  0  0
    8.6936    2.2048   -1.9263 H   0  0  0  0  0  0
   -3.5541   -2.4226    1.0205 N   0  3  2  0  0  0
   -4.1278   -2.8859    1.7114 H   0  0  0  0  0  0
    1.2608   -0.2208    0.7602 N   0  3  0  0  0  0
    0.9086   -1.1388    0.4905 H   0  0  0  0  0  0
  1  6  1  0  0  0
  1 37  1  0  0  0
  2 23  2  0  0  0
  3 10  1  0  0  0
  3 12  1  0  0  0
  3 13  1  0  0  0
  4 23  1  0  0  0
  4 24  1  0  0  0
  4 49  1  0  0  0
  5  6  1  0  0  0
  5 27  1  0  0  0
  5 28  1  0  0  0
  5 57  1  0  0  0
  6  8  1  0  0  0
  6 29  1  0  0  0
  7  8  1  0  0  0
  7 30  1  0  0  0
  7 31  1  0  0  0
  7 57  1  0  0  0
  8 32  1  0  0  0
  8 33  1  0  0  0
  9 10  1  0  0  0
  9 34  1  0  0  0
  9 35  1  0  0  0
  9 57  1  0  0  0
 10 11  1  0  0  0
 10 36  1  0  0  0
 11 14  2  0  0  0
 11 15  1  0  0  0
 12 16  1  0  0  0
 12 59  2  0  0  0
 13 38  1  0  0  0
 13 39  1  0  0  0
 13 40  1  0  0  0
 14 17  1  0  0  0
 14 41  1  0  0  0
 15 18  2  0  0  0
 15 42  1  0  0  0
 16 20  2  0  0  0
 16 43  1  0  0  0
 17 19  2  0  0  0
 17 44  1  0  0  0
 18 19  1  0  0  0
 18 45  1  0  0  0
 19 46  1  0  0  0
 20 21  1  0  0  0
 20 47  1  0  0  0
 21 22  2  0  0  0
 21 23  1  0  0  0
 22 48  1  0  0  0
 22 59  1  0  0  0
 24 25  1  0  0  0
 24 50  1  0  0  0
 24 51  1  0  0  0
 25 26  1  0  0  0
 25 52  1  0  0  0
 25 53  1  0  0  0
 26 54  1  0  0  0
 26 55  1  0  0  0
 26 56  1  0  0  0
 57 58  1  0  0  0
 59 60  1  0  0  0
M  CHG  2  57   1  59   1
M  END
> <LID>
L017852

> <PC_CID>
44214495

> <Names>


> <CAS_Numbers>


$$$$
44214496
                    3D
 Structure written by MMmdl.
 59 61  0  0  1  0            999 V2000
    5.8675   -3.0596   -1.6793 F   0  0  0  0  0  0
   -5.3290    1.4144   -0.0134 O   0  0  0  0  0  0
    0.6629   -0.0484   -1.8106 N   0  0  0  0  0  0
   -5.0056   -0.4707    1.2052 N   0  0  0  0  0  0
    4.8672   -1.0408   -1.0502 C   0  0  0  0  0  0
    4.1855   -2.5470    0.6784 C   0  0  0  0  0  0
    5.9861   -2.0615   -0.8026 C   0  0  1  0  0  0
    5.7086   -2.5909    0.6004 C   0  0  0  0  0  0
    2.4197   -1.3650   -0.6125 C   0  0  0  0  0  0
    1.9225    0.0342   -1.0566 C   0  0  2  0  0  0
    1.9397    1.1218    0.0239 C   0  0  0  0  0  0
   -0.5878    0.0676   -1.2835 C   0  0  0  0  0  0
    0.8593   -0.1697   -3.2540 C   0  0  0  0  0  0
    1.9406    2.4738   -0.3840 C   0  0  0  0  0  0
    1.9486    0.8250    1.4083 C   0  0  0  0  0  0
   -1.6359    0.6381   -2.0461 C   0  0  0  0  0  0
   -0.8868   -0.3715    0.0280 C   0  0  0  0  0  0
    1.9544    3.5112    0.5678 C   0  0  0  0  0  0
    1.9623    1.8625    2.3604 C   0  0  0  0  0  0
    1.9664    3.2059    1.9413 C   0  0  0  0  0  0
   -2.9338    0.7680   -1.5161 C   0  0  0  0  0  0
   -2.1838   -0.2437    0.5611 C   0  0  0  0  0  0
   -3.2237    0.3195   -0.2108 C   0  0  0  0  0  0
   -4.6078    0.4850    0.3499 C   0  0  0  0  0  0
   -6.3161   -0.5332    1.8415 C   0  0  0  0  0  0
   -7.3650   -1.1664    0.9133 C   0  0  0  0  0  0
   -8.7441   -1.2711    1.5732 C   0  0  0  0  0  0
    5.2265   -0.0263   -0.8743 H   0  0  0  0  0  0
    4.5144   -1.0878   -2.0819 H   0  0  0  0  0  0
    3.7698   -3.4283    0.1863 H   0  0  0  0  0  0
    3.8171   -2.5284    1.7046 H   0  0  0  0  0  0
    6.9866   -1.6428   -0.9171 H   0  0  0  0  0  0
    6.1379   -1.9171    1.3433 H   0  0  0  0  0  0
    6.1175   -3.5872    0.7727 H   0  0  0  0  0  0
    2.3974   -2.0591   -1.4542 H   0  0  0  0  0  0
    1.7521   -1.7888    0.1363 H   0  0  0  0  0  0
    2.6630    0.3967   -1.7712 H   0  0  0  0  0  0
    1.7863   -0.6932   -3.4906 H   0  0  0  0  0  0
    0.8995    0.8175   -3.7154 H   0  0  0  0  0  0
    0.0470   -0.7334   -3.7143 H   0  0  0  0  0  0
    1.9267    2.7194   -1.4360 H   0  0  0  0  0  0
    1.9347   -0.1943    1.7622 H   0  0  0  0  0  0
   -1.4583    1.0017   -3.0473 H   0  0  0  0  0  0
   -0.1310   -0.8189    0.6509 H   0  0  0  0  0  0
    1.9538    4.5416    0.2436 H   0  0  0  0  0  0
    1.9661    1.6276    3.4146 H   0  0  0  0  0  0
    1.9753    4.0011    2.6723 H   0  0  0  0  0  0
   -3.7077    1.2155   -2.1232 H   0  0  0  0  0  0
   -2.3661   -0.5803    1.5714 H   0  0  0  0  0  0
   -4.3554   -1.2117    1.4219 H   0  0  0  0  0  0
   -6.2214   -1.1245    2.7527 H   0  0  0  0  0  0
   -6.6314    0.4649    2.1511 H   0  0  0  0  0  0
   -7.4525   -0.5793   -0.0017 H   0  0  0  0  0  0
   -7.0351   -2.1612    0.6112 H   0  0  0  0  0  0
   -9.4666   -1.7230    0.8933 H   0  0  0  0  0  0
   -8.7049   -1.8852    2.4733 H   0  0  0  0  0  0
   -9.1217   -0.2874    1.8536 H   0  0  0  0  0  0
    3.7970   -1.3285   -0.0626 N   0  3  2  0  0  0
    3.8250   -0.5740    0.6091 H   0  0  0  0  0  0
  1  7  1  0  0  0
  2 24  2  0  0  0
  3 10  1  0  0  0
  3 12  1  0  0  0
  3 13  1  0  0  0
  4 24  1  0  0  0
  4 25  1  0  0  0
  4 50  1  0  0  0
  5  7  1  0  0  0
  5 28  1  0  0  0
  5 29  1  0  0  0
  5 58  1  0  0  0
  6  8  1  0  0  0
  6 30  1  0  0  0
  6 31  1  0  0  0
  6 58  1  0  0  0
  7  8  1  0  0  0
  7 32  1  0  0  0
  8 33  1  0  0  0
  8 34  1  0  0  0
  9 10  1  0  0  0
  9 35  1  0  0  0
  9 36  1  0  0  0
  9 58  1  0  0  0
 10 11  1  0  0  0
 10 37  1  0  0  0
 11 14  2  0  0  0
 11 15  1  0  0  0
 12 16  2  0  0  0
 12 17  1  0  0  0
 13 38  1  0  0  0
 13 39  1  0  0  0
 13 40  1  0  0  0
 14 18  1  0  0  0
 14 41  1  0  0  0
 15 19  2  0  0  0
 15 42  1  0  0  0
 16 21  1  0  0  0
 16 43  1  0  0  0
 17 22  2  0  0  0
 17 44  1  0  0  0
 18 20  2  0  0  0
 18 45  1  0  0  0
 19 20  1  0  0  0
 19 46  1  0  0  0
 20 47  1  0  0  0
 21 23  2  0  0  0
 21 48  1  0  0  0
 22 23  1  0  0  0
 22 49  1  0  0  0
 23 24  1  0  0  0
 25 26  1  0  0  0
 25 51  1  0  0  0
 25 52  1  0  0  0
 26 27  1  0  0  0
 26 53  1  0  0  0
 26 54  1  0  0  0
 27 55  1  0  0  0
 27 56  1  0  0  0
 27 57  1  0  0  0
 58 59  1  0  0  0
M  CHG  1  58   1
M  END
> <LID>
L017854

> <PC_CID>
44214496

> <Names>


> <CAS_Numbers>


$$$$
44216266
                    3D
 Structure written by MMmdl.
 69 72  0  0  1  0            999 V2000
   -3.0479   -4.6290   -2.6157 O   0  0  0  0  0  0
   -2.7124    2.8831   -0.1708 O   0  0  0  0  0  0
    4.4138   -0.8567    2.0058 O   0  0  0  0  0  0
   -2.5761    0.9554    1.0224 N   0  0  0  0  0  0
    4.1331    0.8229    0.4829 N   0  0  0  0  0  0
   -4.2271   -3.3991   -0.8953 C   0  0  0  0  0  0
   -4.2624   -3.9649   -2.3271 C   0  0  1  0  0  0
   -3.7744   -1.6176   -2.4112 C   0  0  0  0  0  0
   -4.4030   -2.7395   -3.2302 C   0  0  0  0  0  0
   -3.2856   -1.2802    0.0197 C   0  0  0  0  0  0
   -3.5177    0.2512    0.1146 C   0  0  1  0  0  0
   -4.9791    0.5851    0.4145 C   0  0  0  0  0  0
   -2.2130    2.2393    0.7535 C   0  0  0  0  0  0
   -2.0518    0.2170    2.1825 C   0  0  0  0  0  0
   -5.5134    0.4258    1.7130 C   0  0  0  0  0  0
   -5.8172    1.0536   -0.6217 C   0  0  0  0  0  0
   -1.1267    2.9422    1.5885 C   0  0  0  0  0  0
   -6.8645    0.7289    1.9695 C   0  0  0  0  0  0
   -7.1681    1.3567   -0.3649 C   0  0  0  0  0  0
    0.2585    2.3735    1.3140 C   0  0  0  0  0  0
   -7.6927    1.1940    0.9309 C   0  0  0  0  0  0
    0.8366    2.4880    0.0319 C   0  0  0  0  0  0
    0.9874    1.7487    2.3472 C   0  0  0  0  0  0
    2.1190    1.9638   -0.2184 C   0  0  0  0  0  0
    2.2693    1.2222    2.0976 C   0  0  0  0  0  0
    2.8392    1.3140    0.8050 C   0  0  0  0  0  0
    4.8387   -0.1493    1.0921 C   0  0  0  0  0  0
    6.1960   -0.4089    0.5017 C   0  0  0  0  0  0
    6.7233   -1.7199    0.4969 C   0  0  0  0  0  0
    6.9806    0.6485   -0.0163 C   0  0  0  0  0  0
    8.7723   -0.9192   -0.5641 C   0  0  0  0  0  0
    8.0018   -1.9745   -0.0362 C   0  0  0  0  0  0
    8.2593    0.3932   -0.5489 C   0  0  0  0  0  0
   10.1489   -1.1924   -1.1338 C   0  0  0  0  0  0
   -5.1380   -3.6508   -0.3511 H   0  0  0  0  0  0
   -3.3887   -3.8083   -0.3280 H   0  0  0  0  0  0
   -5.0870   -4.6642   -2.4709 H   0  0  0  0  0  0
   -2.6896   -1.6413   -2.5281 H   0  0  0  0  0  0
   -4.1277   -0.6346   -2.7225 H   0  0  0  0  0  0
   -5.4605   -2.5226   -3.3876 H   0  0  0  0  0  0
   -3.9426   -2.8637   -4.2115 H   0  0  0  0  0  0
   -3.5360   -1.7553    0.9679 H   0  0  0  0  0  0
   -2.2361   -1.5029   -0.1800 H   0  0  0  0  0  0
   -3.3096    0.6188   -0.8915 H   0  0  0  0  0  0
   -2.9982   -5.4172   -2.0957 H   0  0  0  0  0  0
   -1.1141   -0.2753    1.9228 H   0  0  0  0  0  0
   -1.8737    0.8535    3.0473 H   0  0  0  0  0  0
   -2.7386   -0.5449    2.5434 H   0  0  0  0  0  0
   -4.8967    0.0686    2.5229 H   0  0  0  0  0  0
   -5.4283    1.1887   -1.6202 H   0  0  0  0  0  0
   -1.1100    4.0004    1.3235 H   0  0  0  0  0  0
   -1.3675    2.9173    2.6507 H   0  0  0  0  0  0
   -7.2659    0.6048    2.9646 H   0  0  0  0  0  0
   -7.8018    1.7165   -1.1622 H   0  0  0  0  0  0
   -8.7286    1.4275    1.1284 H   0  0  0  0  0  0
    0.2966    2.9786   -0.7651 H   0  0  0  0  0  0
    0.5664    1.6701    3.3388 H   0  0  0  0  0  0
    2.5457    2.0589   -1.2065 H   0  0  0  0  0  0
    2.8032    0.7647    2.9163 H   0  0  0  0  0  0
    4.5602    1.2253   -0.3383 H   0  0  0  0  0  0
    6.1480   -2.5414    0.8992 H   0  0  0  0  0  0
    6.6155    1.6653   -0.0052 H   0  0  0  0  0  0
    8.3894   -2.9828   -0.0361 H   0  0  0  0  0  0
    8.8470    1.2100   -0.9420 H   0  0  0  0  0  0
   10.3904   -0.4823   -1.9253 H   0  0  0  0  0  0
   10.9033   -1.1054   -0.3517 H   0  0  0  0  0  0
   10.2036   -2.1970   -1.5543 H   0  0  0  0  0  0
   -4.1370   -1.9239   -1.0118 N   0  3  2  0  0  0
   -5.0776   -1.5790   -0.8784 H   0  0  0  0  0  0
  1  7  1  0  0  0
  1 45  1  0  0  0
  2 13  2  0  0  0
  3 27  2  0  0  0
  4 11  1  0  0  0
  4 13  1  0  0  0
  4 14  1  0  0  0
  5 26  1  0  0  0
  5 27  1  0  0  0
  5 60  1  0  0  0
  6  7  1  0  0  0
  6 35  1  0  0  0
  6 36  1  0  0  0
  6 68  1  0  0  0
  7  9  1  0  0  0
  7 37  1  0  0  0
  8  9  1  0  0  0
  8 38  1  0  0  0
  8 39  1  0  0  0
  8 68  1  0  0  0
  9 40  1  0  0  0
  9 41  1  0  0  0
 10 11  1  0  0  0
 10 42  1  0  0  0
 10 43  1  0  0  0
 10 68  1  0  0  0
 11 12  1  0  0  0
 11 44  1  0  0  0
 12 15  2  0  0  0
 12 16  1  0  0  0
 13 17  1  0  0  0
 14 46  1  0  0  0
 14 47  1  0  0  0
 14 48  1  0  0  0
 15 18  1  0  0  0
 15 49  1  0  0  0
 16 19  2  0  0  0
 16 50  1  0  0  0
 17 20  1  0  0  0
 17 51  1  0  0  0
 17 52  1  0  0  0
 18 21  2  0  0  0
 18 53  1  0  0  0
 19 21  1  0  0  0
 19 54  1  0  0  0
 20 22  2  0  0  0
 20 23  1  0  0  0
 21 55  1  0  0  0
 22 24  1  0  0  0
 22 56  1  0  0  0
 23 25  2  0  0  0
 23 57  1  0  0  0
 24 26  2  0  0  0
 24 58  1  0  0  0
 25 26  1  0  0  0
 25 59  1  0  0  0
 27 28  1  0  0  0
 28 29  2  0  0  0
 28 30  1  0  0  0
 29 32  1  0  0  0
 29 61  1  0  0  0
 30 33  2  0  0  0
 30 62  1  0  0  0
 31 32  2  0  0  0
 31 33  1  0  0  0
 31 34  1  0  0  0
 32 63  1  0  0  0
 33 64  1  0  0  0
 34 65  1  0  0  0
 34 66  1  0  0  0
 34 67  1  0  0  0
 68 69  1  0  0  0
M  CHG  1  68   1
M  END
> <LID>
L023604

> <PC_CID>
44216266

> <Names>


> <CAS_Numbers>


$$$$
15462300
                    3D
 Structure written by MMmdl.
 36 38  0  0  1  0            999 V2000
    4.6224   -1.6852    1.6884 Cl  0  0  0  0  0  0
    0.7230    3.0007   -0.0451 O   0  0  0  0  0  0
    0.3442    1.6750   -1.8710 O   0  0  0  0  0  0
   -0.6196    1.0861    0.2569 C   0  0  2  0  0  0
   -0.2453   -0.3660    0.4667 C   0  0  0  0  0  0
   -1.2825   -0.1599   -0.2772 C   0  0  0  0  0  0
    1.0178   -0.9849    0.0307 C   0  0  0  0  0  0
   -2.6874   -0.4599    0.0245 C   0  0  0  0  0  0
    0.1919    1.9431   -0.6776 C   0  0  0  0  0  0
    2.0874   -1.0421    0.9471 C   0  0  0  0  0  0
    1.1784   -1.5113   -1.2711 C   0  0  0  0  0  0
   -3.0640   -1.0886    1.2321 C   0  0  0  0  0  0
   -3.6712   -0.1055   -0.9209 C   0  0  0  0  0  0
    3.3142   -1.6197    0.5655 C   0  0  0  0  0  0
    2.4060   -2.0885   -1.6501 C   0  0  0  0  0  0
   -4.4224   -1.3597    1.4889 C   0  0  0  0  0  0
   -5.0286   -0.3779   -0.6612 C   0  0  0  0  0  0
    1.5348    3.9136   -0.7651 C   0  0  0  0  0  0
    3.4734   -2.1427   -0.7328 C   0  0  0  0  0  0
   -5.4041   -1.0047    0.5431 C   0  0  0  0  0  0
    2.0257    5.0108    0.1824 C   0  0  0  0  0  0
   -1.0576    1.6144    1.1014 H   0  0  0  0  0  0
    1.9702   -0.6401    1.9431 H   0  0  0  0  0  0
    0.3690   -1.4730   -1.9857 H   0  0  0  0  0  0
   -2.3203   -1.3656    1.9650 H   0  0  0  0  0  0
   -3.3881    0.3760   -1.8458 H   0  0  0  0  0  0
    2.5292   -2.4887   -2.6457 H   0  0  0  0  0  0
   -4.7113   -1.8403    2.4119 H   0  0  0  0  0  0
   -5.7819   -0.1058   -1.3859 H   0  0  0  0  0  0
    2.3854    3.3884   -1.2020 H   0  0  0  0  0  0
    0.9624    4.3530   -1.5833 H   0  0  0  0  0  0
    4.4139   -2.5853   -1.0264 H   0  0  0  0  0  0
   -6.4452   -1.2131    0.7414 H   0  0  0  0  0  0
    2.6537    5.7274   -0.3470 H   0  0  0  0  0  0
    1.1884    5.5572    0.6172 H   0  0  0  0  0  0
    2.6135    4.5899    0.9985 H   0  0  0  0  0  0
  1 14  1  0  0  0
  2  9  1  0  0  0
  2 18  1  0  0  0
  3  9  2  0  0  0
  4  5  1  0  0  0
  4  6  1  0  0  0
  4  9  1  0  0  0
  4 22  1  0  0  0
  5  6  2  0  0  0
  5  7  1  0  0  0
  6  8  1  0  0  0
  7 10  2  0  0  0
  7 11  1  0  0  0
  8 12  2  0  0  0
  8 13  1  0  0  0
 10 14  1  0  0  0
 10 23  1  0  0  0
 11 15  2  0  0  0
 11 24  1  0  0  0
 12 16  1  0  0  0
 12 25  1  0  0  0
 13 17  2  0  0  0
 13 26  1  0  0  0
 14 19  2  0  0  0
 15 19  1  0  0  0
 15 27  1  0  0  0
 16 20  2  0  0  0
 16 28  1  0  0  0
 17 20  1  0  0  0
 17 29  1  0  0  0
 18 21  1  0  0  0
 18 30  1  0  0  0
 18 31  1  0  0  0
 19 32  1  0  0  0
 20 33  1  0  0  0
 21 34  1  0  0  0
 21 35  1  0  0  0
 21 36  1  0  0  0
M  END
> <LID>
L017497

> <PC_CID>
15462300

> <Names>


> <CAS_Numbers>


$$$$
3345
                    3D
 Structure written by MMmdl.
 54 56  0  0  1  0            999 V2000
   -5.0360   -1.0273   -0.3236 O   0  0  0  0  0  0
   -3.1368    0.1418    0.0945 N   0  0  0  0  0  0
   -1.6630    0.2672    0.2323 C   0  0  0  0  0  0
   -1.0206   -0.7154    1.2335 C   0  0  0  0  0  0
   -0.8617    0.3033   -1.0850 C   0  0  0  0  0  0
    0.4613   -0.3589    1.4500 C   0  0  0  0  0  0
    0.6101    0.6461   -0.7966 C   0  0  0  0  0  0
    2.6652   -0.1157    0.3704 C   0  0  0  0  0  0
    3.5099   -0.6290   -0.8091 C   0  0  0  0  0  0
   -3.8971    1.2066    0.6750 C   0  0  0  0  0  0
   -3.8147   -0.9102   -0.4549 C   0  0  0  0  0  0
    4.9955   -0.4571   -0.5574 C   0  0  0  0  0  0
   -3.0906   -1.9882   -1.2839 C   0  0  0  0  0  0
   -4.7746    1.9772   -0.1241 C   0  0  0  0  0  0
   -3.7602    1.5191    2.0473 C   0  0  0  0  0  0
   -3.9402   -3.2442   -1.5432 C   0  0  0  0  0  0
    5.7400   -1.4987    0.0356 C   0  0  0  0  0  0
    5.6388    0.7483   -0.9098 C   0  0  0  0  0  0
   -5.5100    3.0356    0.4433 C   0  0  0  0  0  0
   -4.4967    2.5781    2.6126 C   0  0  0  0  0  0
   -5.3719    3.3359    1.8116 C   0  0  0  0  0  0
    7.1188   -1.3360    0.2733 C   0  0  0  0  0  0
    7.0176    0.9101   -0.6717 C   0  0  0  0  0  0
    7.7578   -0.1319   -0.0803 C   0  0  0  0  0  0
   -1.4932    1.2570    0.6612 H   0  0  0  0  0  0
   -1.0878   -1.7475    0.8994 H   0  0  0  0  0  0
   -1.5430   -0.6771    2.1893 H   0  0  0  0  0  0
   -1.2880    1.0437   -1.7631 H   0  0  0  0  0  0
   -0.8814   -0.6488   -1.6082 H   0  0  0  0  0  0
    0.5474    0.6089    1.9472 H   0  0  0  0  0  0
    0.9080   -1.0965    2.1179 H   0  0  0  0  0  0
    1.1596    0.6408   -1.7371 H   0  0  0  0  0  0
    0.6903    1.6572   -0.3940 H   0  0  0  0  0  0
    2.8654    0.9398    0.5617 H   0  0  0  0  0  0
    2.9809   -0.6548    1.2649 H   0  0  0  0  0  0
    3.2992   -1.6841   -0.9896 H   0  0  0  0  0  0
    3.2593   -0.1049   -1.7311 H   0  0  0  0  0  0
   -2.8199   -1.5523   -2.2455 H   0  0  0  0  0  0
   -2.1742   -2.3108   -0.8023 H   0  0  0  0  0  0
   -4.8857    1.7592   -1.1765 H   0  0  0  0  0  0
   -3.0968    0.9463    2.6771 H   0  0  0  0  0  0
   -3.3746   -3.9794   -2.1160 H   0  0  0  0  0  0
   -4.2446   -3.7184   -0.6094 H   0  0  0  0  0  0
   -4.8403   -3.0098   -2.1129 H   0  0  0  0  0  0
    5.2571   -2.4250    0.3111 H   0  0  0  0  0  0
    5.0776    1.5527   -1.3626 H   0  0  0  0  0  0
   -6.1799    3.6179   -0.1722 H   0  0  0  0  0  0
   -4.3907    2.8088    3.6624 H   0  0  0  0  0  0
   -5.9364    4.1476    2.2464 H   0  0  0  0  0  0
    7.6865   -2.1350    0.7272 H   0  0  0  0  0  0
    7.5077    1.8338   -0.9426 H   0  0  0  0  0  0
    8.8151   -0.0075    0.1021 H   0  0  0  0  0  0
    1.2089   -0.3232    0.1634 N   0  3  0  0  0  0
    1.1081   -1.2424   -0.2432 H   0  0  0  0  0  0
  1 11  2  0  0  0
  2  3  1  0  0  0
  2 10  1  0  0  0
  2 11  1  0  0  0
  3  4  1  0  0  0
  3  5  1  0  0  0
  3 25  1  0  0  0
  4  6  1  0  0  0
  4 26  1  0  0  0
  4 27  1  0  0  0
  5  7  1  0  0  0
  5 28  1  0  0  0
  5 29  1  0  0  0
  6 30  1  0  0  0
  6 31  1  0  0  0
  6 53  1  0  0  0
  7 32  1  0  0  0
  7 33  1  0  0  0
  7 53  1  0  0  0
  8  9  1  0  0  0
  8 34  1  0  0  0
  8 35  1  0  0  0
  8 53  1  0  0  0
  9 12  1  0  0  0
  9 36  1  0  0  0
  9 37  1  0  0  0
 10 14  2  0  0  0
 10 15  1  0  0  0
 11 13  1  0  0  0
 12 17  2  0  0  0
 12 18  1  0  0  0
 13 16  1  0  0  0
 13 38  1  0  0  0
 13 39  1  0  0  0
 14 19  1  0  0  0
 14 40  1  0  0  0
 15 20  2  0  0  0
 15 41  1  0  0  0
 16 42  1  0  0  0
 16 43  1  0  0  0
 16 44  1  0  0  0
 17 22  1  0  0  0
 17 45  1  0  0  0
 18 23  2  0  0  0
 18 46  1  0  0  0
 19 21  2  0  0  0
 19 47  1  0  0  0
 20 21  1  0  0  0
 20 48  1  0  0  0
 21 49  1  0  0  0
 22 24  2  0  0  0
 22 50  1  0  0  0
 23 24  1  0  0  0
 23 51  1  0  0  0
 24 52  1  0  0  0
 53 54  1  0  0  0
M  CHG  1  53   1
M  END
> <LID>
L001275

> <PC_CID>
3345

> <Names>
Fentanyl

> <CAS_Numbers>
437-38-7;80832-90-2;990-73-8

$$$$
15020437
                    3D
 Structure written by MMmdl.
 52 54  0  0  1  0            999 V2000
    5.9309    0.9483   -1.6346 Cl  0  0  0  0  0  0
    7.0128   -0.7828    0.8155 Cl  0  0  0  0  0  0
    0.7749    0.4871    0.5317 O   0  0  0  0  0  0
   -1.0506   -0.4123   -0.4708 N   0  0  0  0  0  0
   -3.0927   -0.4464    0.9759 C   0  0  0  0  0  0
   -2.0079    0.4461    0.2731 C   0  0  2  0  0  0
   -3.7550   -1.3997   -0.0459 C   0  0  0  0  0  0
   -2.7284   -2.2066   -0.8498 C   0  0  0  0  0  0
   -2.5230    1.5563   -0.6875 C   0  0  0  0  0  0
   -1.6691   -1.2951   -1.4811 C   0  0  0  0  0  0
   -2.4185   -1.2732    2.0983 C   0  0  0  0  0  0
   -4.2000    0.3851    1.6584 C   0  0  0  0  0  0
    0.2890   -0.3333   -0.2499 C   0  0  0  0  0  0
   -2.2075    3.5397    0.8155 C   0  0  0  0  0  0
   -3.9368    3.6026   -0.8875 C   0  0  0  0  0  0
    1.2340   -1.3030   -0.9877 C   0  0  0  0  0  0
   -2.7003    4.9399    0.5840 C   0  0  0  0  0  0
   -3.6469    4.9743   -0.3471 C   0  0  0  0  0  0
    2.6831   -1.1687   -0.5414 C   0  0  0  0  0  0
    3.5525   -0.2802   -1.2091 C   0  0  0  0  0  0
    3.1663   -1.9338    0.5407 C   0  0  0  0  0  0
    4.8940   -0.1517   -0.7978 C   0  0  0  0  0  0
    4.5067   -1.8076    0.9531 C   0  0  0  0  0  0
    5.3732   -0.9182    0.2875 C   0  0  0  0  0  0
   -1.4907    0.9590    1.0842 H   0  0  0  0  0  0
   -4.3692   -0.8267   -0.7413 H   0  0  0  0  0  0
   -4.4400   -2.0822    0.4590 H   0  0  0  0  0  0
   -3.2368   -2.7763   -1.6283 H   0  0  0  0  0  0
   -2.2431   -2.9433   -0.2093 H   0  0  0  0  0  0
   -1.7048    1.9343   -1.3032 H   0  0  0  0  0  0
   -3.2533    1.1367   -1.3793 H   0  0  0  0  0  0
   -2.1317   -0.6781   -2.2511 H   0  0  0  0  0  0
   -0.9627   -1.9215   -2.0216 H   0  0  0  0  0  0
   -3.1311   -1.9398    2.5854 H   0  0  0  0  0  0
   -1.5994   -1.8919    1.7335 H   0  0  0  0  0  0
   -2.0036   -0.6242    2.8704 H   0  0  0  0  0  0
   -4.8638   -0.2518    2.2447 H   0  0  0  0  0  0
   -3.7826    1.1275    2.3394 H   0  0  0  0  0  0
   -4.8318    0.9001    0.9352 H   0  0  0  0  0  0
   -1.1753    3.4547    0.4723 H   0  0  0  0  0  0
   -2.2569    3.2686    1.8704 H   0  0  0  0  0  0
   -4.9997    3.3657   -0.8338 H   0  0  0  0  0  0
   -3.6082    3.5450   -1.9263 H   0  0  0  0  0  0
    0.9125   -2.3306   -0.8130 H   0  0  0  0  0  0
    1.1779   -1.1198   -2.0615 H   0  0  0  0  0  0
   -2.3001    5.7949    1.1093 H   0  0  0  0  0  0
   -4.1462    5.8621   -0.7070 H   0  0  0  0  0  0
    3.1895    0.3098   -2.0380 H   0  0  0  0  0  0
    2.5095   -2.6166    1.0598 H   0  0  0  0  0  0
    4.8701   -2.3949    1.7836 H   0  0  0  0  0  0
   -3.1458    2.7098    0.0057 N   0  3  0  0  0  0
   -3.8135    2.3305    0.6620 H   0  0  0  0  0  0
  1 22  1  0  0  0
  2 24  1  0  0  0
  3 13  2  0  0  0
  4  6  1  0  0  0
  4 10  1  0  0  0
  4 13  1  0  0  0
  5  6  1  0  0  0
  5  7  1  0  0  0
  5 11  1  0  0  0
  5 12  1  0  0  0
  6  9  1  0  0  0
  6 25  1  0  0  0
  7  8  1  0  0  0
  7 26  1  0  0  0
  7 27  1  0  0  0
  8 10  1  0  0  0
  8 28  1  0  0  0
  8 29  1  0  0  0
  9 30  1  0  0  0
  9 31  1  0  0  0
  9 51  1  0  0  0
 10 32  1  0  0  0
 10 33  1  0  0  0
 11 34  1  0  0  0
 11 35  1  0  0  0
 11 36  1  0  0  0
 12 37  1  0  0  0
 12 38  1  0  0  0
 12 39  1  0  0  0
 13 16  1  0  0  0
 14 17  1  0  0  0
 14 40  1  0  0  0
 14 41  1  0  0  0
 14 51  1  0  0  0
 15 18  1  0  0  0
 15 42  1  0  0  0
 15 43  1  0  0  0
 15 51  1  0  0  0
 16 19  1  0  0  0
 16 44  1  0  0  0
 16 45  1  0  0  0
 17 18  2  0  0  0
 17 46  1  0  0  0
 18 47  1  0  0  0
 19 20  2  0  0  0
 19 21  1  0  0  0
 20 22  1  0  0  0
 20 48  1  0  0  0
 21 23  2  0  0  0
 21 49  1  0  0  0
 22 24  2  0  0  0
 23 24  1  0  0  0
 23 50  1  0  0  0
 51 52  1  0  0  0
M  CHG  1  51   1
M  END
> <LID>
L005477

> <PC_CID>
15020437

> <Names>


> <CAS_Numbers>


$$$$
44214011
                    3D
 Structure written by MMmdl.
 69 71  0  0  1  0            999 V2000
    0.7934   -3.7043    2.0530 Cl  0  0  0  0  0  0
   -0.8063   -4.8807   -0.4412 Cl  0  0  0  0  0  0
   -1.0471    1.5133    2.1960 O   0  0  0  0  0  0
    2.0488   -2.8853   -1.0549 O   0  0  0  0  0  0
    6.7391    0.1372    1.7808 O   0  0  0  0  0  0
   -2.7698    1.8114    0.7423 N   0  0  0  0  0  0
    2.0174   -0.6210   -0.7928 N   0  0  0  0  0  0
   -1.3419    4.7466   -2.2846 C   0  0  0  0  0  0
    0.6126    5.0924   -0.9607 C   0  0  0  0  0  0
   -0.6370    6.0220   -2.7674 C   0  0  0  0  0  0
    0.7901    5.8992   -2.2423 C   0  0  0  0  0  0
   -1.1461    3.5750   -0.0746 C   0  0  0  0  0  0
   -1.9961    2.3214   -0.4104 C   0  0  1  0  0  0
   -1.2292    1.1859   -1.0959 C   0  0  0  0  0  0
    0.0737    0.8148   -0.6913 C   0  0  0  0  0  0
   -2.1842    1.2303    1.8196 C   0  0  0  0  0  0
   -4.2273    1.8540    0.5833 C   0  0  0  0  0  0
   -1.8705    0.4400   -2.1081 C   0  0  0  0  0  0
    0.7171   -0.3015   -1.2634 C   0  0  0  0  0  0
   -2.8695    0.0266    2.4837 C   0  0  0  0  0  0
   -1.2221   -0.6552   -2.7074 C   0  0  0  0  0  0
    0.0683   -1.0277   -2.2889 C   0  0  0  0  0  0
   -2.3805   -1.2369    1.7919 C   0  0  0  0  0  0
    4.0186   -1.8596   -0.1463 C   0  0  1  0  0  0
    2.5952   -1.8343   -0.7184 C   0  0  0  0  0  0
    4.0233   -1.5601    1.3743 C   0  0  0  0  0  0
   -1.1774   -1.8498    2.2032 C   0  0  0  0  0  0
   -3.0976   -1.7774    0.7038 C   0  0  0  0  0  0
    5.3673   -1.7776    2.1028 C   0  0  0  0  0  0
   -0.6842   -2.9818    1.5250 C   0  0  0  0  0  0
   -2.6046   -2.9059    0.0216 C   0  0  0  0  0  0
   -1.3965   -3.5074    0.4249 C   0  0  0  0  0  0
    6.5320   -1.0457    1.4371 C   0  0  0  0  0  0
   -1.4877    4.0417   -3.1039 H   0  0  0  0  0  0
   -2.3252    4.9901   -1.8792 H   0  0  0  0  0  0
    0.2925    5.7529   -0.1527 H   0  0  0  0  0  0
    1.5303    4.5934   -0.6474 H   0  0  0  0  0  0
   -1.1157    6.8955   -2.3225 H   0  0  0  0  0  0
   -0.6756    6.1399   -3.8508 H   0  0  0  0  0  0
    1.4016    5.3407   -2.9525 H   0  0  0  0  0  0
    1.2660    6.8658   -2.0737 H   0  0  0  0  0  0
   -0.3816    3.3423    0.6649 H   0  0  0  0  0  0
   -1.7728    4.3480    0.3730 H   0  0  0  0  0  0
   -2.7137    2.6551   -1.1606 H   0  0  0  0  0  0
    0.5749    1.3609    0.0937 H   0  0  0  0  0  0
   -4.5864    0.9517    0.0886 H   0  0  0  0  0  0
   -4.7372    1.9526    1.5425 H   0  0  0  0  0  0
   -4.5463    2.7109   -0.0107 H   0  0  0  0  0  0
   -2.8718    0.6967   -2.4222 H   0  0  0  0  0  0
   -2.5946   -0.0059    3.5388 H   0  0  0  0  0  0
   -3.9568    0.0744    2.4548 H   0  0  0  0  0  0
   -1.7195   -1.2178   -3.4838 H   0  0  0  0  0  0
    0.5458   -1.8688   -2.7683 H   0  0  0  0  0  0
    2.5342    0.1438   -0.3832 H   0  0  0  0  0  0
    4.5842   -1.0817   -0.6615 H   0  0  0  0  0  0
    3.6978   -0.5319    1.5399 H   0  0  0  0  0  0
    3.2780   -2.1841    1.8684 H   0  0  0  0  0  0
   -0.6194   -1.4396    3.0325 H   0  0  0  0  0  0
   -4.0184   -1.3190    0.3757 H   0  0  0  0  0  0
    5.2832   -1.4398    3.1365 H   0  0  0  0  0  0
    5.6030   -2.8412    2.1551 H   0  0  0  0  0  0
    5.6601   -3.0667   -0.1230 H   0  0  0  0  0  0
    4.2272   -3.8895    0.0183 H   0  0  0  0  0  0
   -3.1521   -3.3061   -0.8190 H   0  0  0  0  0  0
    7.1608   -1.6807    0.5618 O   0  5  0  0  0  0
   -0.4583    4.1239   -1.2687 N   0  3  0  0  0  0
   -0.0023    3.3487   -1.7294 H   0  0  0  0  0  0
    4.7032   -3.1318   -0.4492 N   0  3  0  0  0  0
    4.6936   -3.2903   -1.4462 H   0  0  0  0  0  0
  1 30  1  0  0  0
  2 32  1  0  0  0
  3 16  2  0  0  0
  4 25  2  0  0  0
  5 33  2  0  0  0
  6 13  1  0  0  0
  6 16  1  0  0  0
  6 17  1  0  0  0
  7 19  1  0  0  0
  7 25  1  0  0  0
  7 54  1  0  0  0
  8 10  1  0  0  0
  8 34  1  0  0  0
  8 35  1  0  0  0
  8 66  1  0  0  0
  9 11  1  0  0  0
  9 36  1  0  0  0
  9 37  1  0  0  0
  9 66  1  0  0  0
 10 11  1  0  0  0
 10 38  1  0  0  0
 10 39  1  0  0  0
 11 40  1  0  0  0
 11 41  1  0  0  0
 12 13  1  0  0  0
 12 42  1  0  0  0
 12 43  1  0  0  0
 12 66  1  0  0  0
 13 14  1  0  0  0
 13 44  1  0  0  0
 14 15  2  0  0  0
 14 18  1  0  0  0
 15 19  1  0  0  0
 15 45  1  0  0  0
 16 20  1  0  0  0
 17 46  1  0  0  0
 17 47  1  0  0  0
 17 48  1  0  0  0
 18 21  2  0  0  0
 18 49  1  0  0  0
 19 22  2  0  0  0
 20 23  1  0  0  0
 20 50  1  0  0  0
 20 51  1  0  0  0
 21 22  1  0  0  0
 21 52  1  0  0  0
 22 53  1  0  0  0
 23 27  2  0  0  0
 23 28  1  0  0  0
 24 25  1  0  0  0
 24 26  1  0  0  0
 24 55  1  0  0  0
 24 68  1  0  0  0
 26 29  1  0  0  0
 26 56  1  0  0  0
 26 57  1  0  0  0
 27 30  1  0  0  0
 27 58  1  0  0  0
 28 31  2  0  0  0
 28 59  1  0  0  0
 29 33  1  0  0  0
 29 60  1  0  0  0
 29 61  1  0  0  0
 30 32  2  0  0  0
 31 32  1  0  0  0
 31 64  1  0  0  0
 33 65  1  0  0  0
 62 68  1  0  0  0
 63 68  1  0  0  0
 66 67  1  0  0  0
 68 69  1  0  0  0
M  CHG  3  65  -1  66   1  68   1
M  END
> <LID>
L016570

> <PC_CID>
44214011

> <Names>


> <CAS_Numbers>


$$$$
44214010
                    3D
 Structure written by MMmdl.
 66 68  0  0  1  0            999 V2000
   -1.2673   -4.8722    0.2586 Cl  0  0  0  0  0  0
   -4.1461   -5.7668   -0.7864 Cl  0  0  0  0  0  0
   -1.4425    0.4161    2.4706 O   0  0  0  0  0  0
    4.2416   -1.0335   -1.4694 O   0  0  0  0  0  0
    3.9352    2.6470    1.3019 O   0  0  0  0  0  0
   -2.7770    0.7868    0.6694 N   0  0  0  0  0  0
    2.9170   -0.4210    0.2831 N   0  0  0  0  0  0
   -0.7770    3.8411   -1.8704 C   0  0  0  0  0  0
    0.5476    4.4519    0.0244 C   0  0  0  0  0  0
   -0.2229    5.2553   -2.0823 C   0  0  0  0  0  0
    0.9738    5.3372   -1.1424 C   0  0  0  0  0  0
   -1.2014    2.7095    0.3273 C   0  0  0  0  0  0
   -1.7168    1.3413   -0.1981 C   0  0  1  0  0  0
   -0.6386    0.2966   -0.5113 C   0  0  0  0  0  0
   -2.5130    0.2445    1.8871 C   0  0  0  0  0  0
   -4.1239    0.8110    0.0865 C   0  0  0  0  0  0
    0.6586    0.3679    0.0435 C   0  0  0  0  0  0
   -0.9597   -0.7878   -1.3573 C   0  0  0  0  0  0
    1.6331   -0.5938   -0.2810 C   0  0  0  0  0  0
   -3.5293   -0.7115    2.5350 C   0  0  0  0  0  0
    0.0020   -1.7720   -1.6576 C   0  0  0  0  0  0
    1.3016   -1.6760   -1.1253 C   0  0  0  0  0  0
   -3.6763   -1.9921    1.7217 C   0  0  0  0  0  0
    4.0862   -0.4965   -0.3733 C   0  0  0  0  0  0
   -2.5460   -2.7832    1.4160 C   0  0  0  0  0  0
   -4.9472   -2.3955    1.2613 C   0  0  0  0  0  0
    5.2817    0.1464    0.3373 C   0  0  0  0  0  0
    5.5454    1.6028   -0.1313 C   0  0  1  0  0  0
   -2.6777   -3.9490    0.6371 C   0  0  0  0  0  0
   -5.0830   -3.5656    0.4898 C   0  0  0  0  0  0
   -3.9515   -4.3425    0.1720 C   0  0  0  0  0  0
    4.3481    2.5384    0.1254 C   0  0  0  0  0  0
   -1.8679    3.8531   -1.8762 H   0  0  0  0  0  0
   -0.4505    3.1721   -2.6673 H   0  0  0  0  0  0
    1.3949    4.0809    0.6019 H   0  0  0  0  0  0
   -0.0958    5.0218    0.6970 H   0  0  0  0  0  0
   -0.9712    5.9910   -1.7840 H   0  0  0  0  0  0
    0.0425    5.4536   -3.1212 H   0  0  0  0  0  0
    1.8559    4.9190   -1.6285 H   0  0  0  0  0  0
    1.2084    6.3576   -0.8379 H   0  0  0  0  0  0
   -0.7299    2.5879    1.3025 H   0  0  0  0  0  0
   -2.0389    3.3909    0.4852 H   0  0  0  0  0  0
   -2.1608    1.5429   -1.1737 H   0  0  0  0  0  0
   -4.3078   -0.1026   -0.4794 H   0  0  0  0  0  0
   -4.9052    0.9155    0.8387 H   0  0  0  0  0  0
   -4.2549    1.6544   -0.5923 H   0  0  0  0  0  0
    0.9309    1.1698    0.7130 H   0  0  0  0  0  0
   -1.9523   -0.8722   -1.7752 H   0  0  0  0  0  0
   -3.1797   -0.9827    3.5321 H   0  0  0  0  0  0
   -4.4902   -0.2190    2.6811 H   0  0  0  0  0  0
   -0.2569   -2.6007   -2.3001 H   0  0  0  0  0  0
    2.0322   -2.4347   -1.3647 H   0  0  0  0  0  0
    2.9442    0.0887    1.1549 H   0  0  0  0  0  0
   -1.5669   -2.4885    1.7655 H   0  0  0  0  0  0
   -5.8222   -1.8048    1.4901 H   0  0  0  0  0  0
    5.1292    0.1089    1.4175 H   0  0  0  0  0  0
    6.1613   -0.4673    0.1382 H   0  0  0  0  0  0
    5.7728    1.5936   -1.1991 H   0  0  0  0  0  0
   -6.0589   -3.8648    0.1366 H   0  0  0  0  0  0
    6.8898    3.0981    0.2050 H   0  0  0  0  0  0
    6.5269    2.2136    1.5461 H   0  0  0  0  0  0
    3.8551    3.1228   -0.8633 O   0  5  0  0  0  0
   -0.2201    3.3469   -0.5871 N   0  3  0  0  0  0
    0.4645    2.6432   -0.8286 H   0  0  0  0  0  0
    6.7192    2.1665    0.5556 N   0  3  0  0  0  0
    7.5272    1.5847    0.3888 H   0  0  0  0  0  0
  1 29  1  0  0  0
  2 31  1  0  0  0
  3 15  2  0  0  0
  4 24  2  0  0  0
  5 32  2  0  0  0
  6 13  1  0  0  0
  6 15  1  0  0  0
  6 16  1  0  0  0
  7 19  1  0  0  0
  7 24  1  0  0  0
  7 53  1  0  0  0
  8 10  1  0  0  0
  8 33  1  0  0  0
  8 34  1  0  0  0
  8 63  1  0  0  0
  9 11  1  0  0  0
  9 35  1  0  0  0
  9 36  1  0  0  0
  9 63  1  0  0  0
 10 11  1  0  0  0
 10 37  1  0  0  0
 10 38  1  0  0  0
 11 39  1  0  0  0
 11 40  1  0  0  0
 12 13  1  0  0  0
 12 41  1  0  0  0
 12 42  1  0  0  0
 12 63  1  0  0  0
 13 14  1  0  0  0
 13 43  1  0  0  0
 14 17  2  0  0  0
 14 18  1  0  0  0
 15 20  1  0  0  0
 16 44  1  0  0  0
 16 45  1  0  0  0
 16 46  1  0  0  0
 17 19  1  0  0  0
 17 47  1  0  0  0
 18 21  2  0  0  0
 18 48  1  0  0  0
 19 22  2  0  0  0
 20 23  1  0  0  0
 20 49  1  0  0  0
 20 50  1  0  0  0
 21 22  1  0  0  0
 21 51  1  0  0  0
 22 52  1  0  0  0
 23 25  2  0  0  0
 23 26  1  0  0  0
 24 27  1  0  0  0
 25 29  1  0  0  0
 25 54  1  0  0  0
 26 30  2  0  0  0
 26 55  1  0  0  0
 27 28  1  0  0  0
 27 56  1  0  0  0
 27 57  1  0  0  0
 28 32  1  0  0  0
 28 58  1  0  0  0
 28 65  1  0  0  0
 29 31  2  0  0  0
 30 31  1  0  0  0
 30 59  1  0  0  0
 32 62  1  0  0  0
 60 65  1  0  0  0
 61 65  1  0  0  0
 63 64  1  0  0  0
 65 66  1  0  0  0
M  CHG  3  62  -1  63   1  65   1
M  END
> <LID>
L016569

> <PC_CID>
44214010

> <Names>


> <CAS_Numbers>


$$$$
44216219
                    3D
 Structure written by MMmdl.
 66 68  0  0  1  0            999 V2000
   -4.0355   -5.1610   -0.0893 F   0  0  0  0  0  0
   -6.0359   -4.3457   -0.1379 F   0  0  0  0  0  0
   -4.6125   -3.8078   -1.6813 F   0  0  0  0  0  0
   -0.6858    1.3013    2.3905 O   0  0  0  0  0  0
    3.5606   -2.3743   -0.5020 O   0  0  0  0  0  0
    7.8946   -0.9336    1.4283 O   0  0  0  0  0  0
   -2.1342    2.0103    0.7901 N   0  0  0  0  0  0
    3.1436   -0.1601   -0.1379 N   0  0  0  0  0  0
    0.0297    4.9371   -1.7555 C   0  0  0  0  0  0
    1.6233    5.1982    0.0016 C   0  0  0  0  0  0
    0.8508    6.2074   -2.0168 C   0  0  0  0  0  0
    2.1124    6.0331   -1.1768 C   0  0  0  0  0  0
   -0.3264    3.7084    0.4029 C   0  0  0  0  0  0
   -1.0987    2.4835   -0.1538 C   0  0  1  0  0  0
   -0.2304    1.3331   -0.6779 C   0  0  0  0  0  0
   -1.8313    1.3559    1.9427 C   0  0  0  0  0  0
   -3.5154    2.2630    0.3599 C   0  0  0  0  0  0
    1.0760    1.0888   -0.1932 C   0  0  0  0  0  0
   -0.7706    0.4679   -1.6527 C   0  0  0  0  0  0
   -2.9234    0.5819    2.7012 C   0  0  0  0  0  0
    1.8358    0.0011   -0.6714 C   0  0  0  0  0  0
   -0.0145   -0.6092   -2.1491 C   0  0  0  0  0  0
    1.2872   -0.8407   -1.6678 C   0  0  0  0  0  0
   -3.3967   -0.6308    1.9103 C   0  0  0  0  0  0
   -2.4874   -1.6473    1.5441 C   0  0  0  0  0  0
   -4.7525   -0.7497    1.5396 C   0  0  0  0  0  0
    3.9095   -1.2660   -0.0960 C   0  0  0  0  0  0
   -2.9267   -2.7605    0.8026 C   0  0  0  0  0  0
   -5.1914   -1.8643    0.7993 C   0  0  0  0  0  0
   -4.2825   -2.8788    0.4283 C   0  0  0  0  0  0
    5.2884   -1.0878    0.5448 C   0  0  0  0  0  0
    6.3959   -1.8687   -0.1965 C   0  0  0  0  0  0
   -4.7532   -4.0764   -0.3838 C   0  0  0  0  0  0
    7.7889   -1.6460    0.4048 C   0  0  0  0  0  0
   -1.0180    5.1922   -1.5891 H   0  0  0  0  0  0
    0.0726    4.2573   -2.6073 H   0  0  0  0  0  0
    2.4316    4.6663    0.5045 H   0  0  0  0  0  0
    1.1361    5.8456    0.7330 H   0  0  0  0  0  0
    0.2969    7.0797   -1.6667 H   0  0  0  0  0  0
    1.0695    6.3572   -3.0746 H   0  0  0  0  0  0
    2.8621    5.4771   -1.7417 H   0  0  0  0  0  0
    2.5546    6.9819   -0.8712 H   0  0  0  0  0  0
    0.2242    3.4362    1.3031 H   0  0  0  0  0  0
   -1.0263    4.4887    0.7065 H   0  0  0  0  0  0
   -1.6082    2.8414   -1.0492 H   0  0  0  0  0  0
   -3.8896    1.4190   -0.2201 H   0  0  0  0  0  0
   -4.1931    2.4366    1.1949 H   0  0  0  0  0  0
   -3.5913    3.1537   -0.2646 H   0  0  0  0  0  0
    1.5021    1.7222    0.5701 H   0  0  0  0  0  0
   -1.7718    0.6285   -2.0255 H   0  0  0  0  0  0
   -2.5143    0.2264    3.6480 H   0  0  0  0  0  0
   -3.7542    1.2343    2.9679 H   0  0  0  0  0  0
   -0.4332   -1.2597   -2.9029 H   0  0  0  0  0  0
    1.8471   -1.6642   -2.0831 H   0  0  0  0  0  0
    3.5287    0.6518    0.3215 H   0  0  0  0  0  0
   -1.4461   -1.5725    1.8230 H   0  0  0  0  0  0
   -5.4609    0.0183    1.8140 H   0  0  0  0  0  0
   -2.2162   -3.5233    0.5200 H   0  0  0  0  0  0
   -6.2308   -1.9350    0.5144 H   0  0  0  0  0  0
    5.5391   -0.0257    0.5712 H   0  0  0  0  0  0
    5.2231   -1.4212    1.5814 H   0  0  0  0  0  0
    6.1860   -2.9388   -0.1743 H   0  0  0  0  0  0
    6.4253   -1.5733   -1.2462 H   0  0  0  0  0  0
    8.7402   -2.2039   -0.1838 O   0  5  0  0  0  0
    0.6353    4.2673   -0.5787 N   0  3  0  0  0  0
    1.1706    3.4911   -0.9424 H   0  0  0  0  0  0
  1 33  1  0  0  0
  2 33  1  0  0  0
  3 33  1  0  0  0
  4 16  2  0  0  0
  5 27  2  0  0  0
  6 34  2  0  0  0
  7 14  1  0  0  0
  7 16  1  0  0  0
  7 17  1  0  0  0
  8 21  1  0  0  0
  8 27  1  0  0  0
  8 55  1  0  0  0
  9 11  1  0  0  0
  9 35  1  0  0  0
  9 36  1  0  0  0
  9 65  1  0  0  0
 10 12  1  0  0  0
 10 37  1  0  0  0
 10 38  1  0  0  0
 10 65  1  0  0  0
 11 12  1  0  0  0
 11 39  1  0  0  0
 11 40  1  0  0  0
 12 41  1  0  0  0
 12 42  1  0  0  0
 13 14  1  0  0  0
 13 43  1  0  0  0
 13 44  1  0  0  0
 13 65  1  0  0  0
 14 15  1  0  0  0
 14 45  1  0  0  0
 15 18  2  0  0  0
 15 19  1  0  0  0
 16 20  1  0  0  0
 17 46  1  0  0  0
 17 47  1  0  0  0
 17 48  1  0  0  0
 18 21  1  0  0  0
 18 49  1  0  0  0
 19 22  2  0  0  0
 19 50  1  0  0  0
 20 24  1  0  0  0
 20 51  1  0  0  0
 20 52  1  0  0  0
 21 23  2  0  0  0
 22 23  1  0  0  0
 22 53  1  0  0  0
 23 54  1  0  0  0
 24 25  2  0  0  0
 24 26  1  0  0  0
 25 28  1  0  0  0
 25 56  1  0  0  0
 26 29  2  0  0  0
 26 57  1  0  0  0
 27 31  1  0  0  0
 28 30  2  0  0  0
 28 58  1  0  0  0
 29 30  1  0  0  0
 29 59  1  0  0  0
 30 33  1  0  0  0
 31 32  1  0  0  0
 31 60  1  0  0  0
 31 61  1  0  0  0
 32 34  1  0  0  0
 32 62  1  0  0  0
 32 63  1  0  0  0
 34 64  1  0  0  0
 65 66  1  0  0  0
M  CHG  2  64  -1  65   1
M  END
> <LID>
L023516

> <PC_CID>
44216219

> <Names>


> <CAS_Numbers>


$$$$
44214654
                    3D
 Structure written by MMmdl.
 58 61  0  0  1  0            999 V2000
    6.4269   -0.5130    1.5499 O   0  0  0  0  0  0
   -1.8057    2.8024    0.0174 O   0  0  0  0  0  0
    1.2259    2.1542    1.5935 O   0  0  0  0  0  0
   -1.7456   -3.6557    1.3069 O   0  0  0  0  0  0
   -3.3066   -4.4743    3.2745 O   0  0  0  0  0  0
    0.5531    1.0530   -0.2751 N   0  0  0  0  0  0
    4.1299   -1.1490    1.1256 C   0  0  0  0  0  0
    4.9509   -1.1062   -1.1117 C   0  0  0  0  0  0
    5.6051   -1.5901    1.1447 C   0  0  1  0  0  0
    5.9232   -1.9600   -0.3047 C   0  0  0  0  0  0
    2.8057    0.0510   -0.6318 C   0  0  0  0  0  0
    1.4003   -0.1282   -0.0060 C   0  0  2  0  0  0
    0.7002   -1.4485   -0.3455 C   0  0  0  0  0  0
   -0.1010    1.0906   -1.5913 C   0  0  0  0  0  0
    0.4732    2.0718    0.6218 C   0  0  0  0  0  0
   -0.2097   -1.9942    0.5855 C   0  0  0  0  0  0
    0.9236   -2.1300   -1.5638 C   0  0  0  0  0  0
   -0.8842   -3.2050    0.3305 C   0  0  0  0  0  0
   -0.5381    3.1392    0.4339 C   0  0  0  0  0  0
    0.2554   -3.3384   -1.8325 C   0  0  0  0  0  0
   -0.6427   -3.8773   -0.8926 C   0  0  0  0  0  0
   -0.4538    4.4904    0.6895 C   0  0  0  0  0  0
   -1.7363    5.0513    0.3779 C   0  0  0  0  0  0
   -2.5438    3.9651   -0.0362 C   0  0  0  0  0  0
   -2.3373    6.3317    0.3914 C   0  0  0  0  0  0
   -3.8859    4.1089   -0.4257 C   0  0  0  0  0  0
   -2.4311   -4.8844    1.0874 C   0  0  0  0  0  0
   -3.6842    6.5018    0.0029 C   0  0  0  0  0  0
   -4.4583    5.3949   -0.4050 C   0  0  0  0  0  0
   -3.3212   -5.2355    2.2815 C   0  0  0  0  0  0
    3.4962   -1.8809    1.6278 H   0  0  0  0  0  0
    3.9926   -0.1961    1.6406 H   0  0  0  0  0  0
    5.3527   -0.0973   -1.2225 H   0  0  0  0  0  0
    4.7643   -1.5092   -2.1076 H   0  0  0  0  0  0
    5.7722   -2.4313    1.8186 H   0  0  0  0  0  0
    5.6998   -3.0151   -0.4689 H   0  0  0  0  0  0
    6.9665   -1.7972   -0.5790 H   0  0  0  0  0  0
    3.2520    0.9897   -0.2993 H   0  0  0  0  0  0
    2.7246    0.1281   -1.7164 H   0  0  0  0  0  0
    1.5546   -0.2002    1.0721 H   0  0  0  0  0  0
    6.2590   -0.3256    2.4614 H   0  0  0  0  0  0
   -0.1539    2.1021   -1.9964 H   0  0  0  0  0  0
    0.4381    0.5009   -2.3316 H   0  0  0  0  0  0
   -1.1139    0.6921   -1.5233 H   0  0  0  0  0  0
   -0.3973   -1.4787    1.5165 H   0  0  0  0  0  0
    1.5988   -1.7365   -2.3080 H   0  0  0  0  0  0
    0.4296   -3.8540   -2.7655 H   0  0  0  0  0  0
   -1.1365   -4.8060   -1.1350 H   0  0  0  0  0  0
    0.4076    5.0314    1.0523 H   0  0  0  0  0  0
   -1.7585    7.1887    0.7027 H   0  0  0  0  0  0
   -4.4643    3.2503   -0.7329 H   0  0  0  0  0  0
   -3.0589   -4.8139    0.1978 H   0  0  0  0  0  0
   -1.7175   -5.6969    0.9423 H   0  0  0  0  0  0
   -4.1264    7.4874    0.0191 H   0  0  0  0  0  0
   -5.4883    5.5339   -0.6995 H   0  0  0  0  0  0
   -4.0076   -6.2757    2.1786 O   0  5  0  0  0  0
    3.7211   -1.0673   -0.2979 N   0  3  2  0  0  0
    3.2288   -1.9263   -0.5003 H   0  0  0  0  0  0
  1  9  1  0  0  0
  1 41  1  0  0  0
  2 19  1  0  0  0
  2 24  1  0  0  0
  3 15  2  0  0  0
  4 18  1  0  0  0
  4 27  1  0  0  0
  5 30  2  0  0  0
  6 12  1  0  0  0
  6 14  1  0  0  0
  6 15  1  0  0  0
  7  9  1  0  0  0
  7 31  1  0  0  0
  7 32  1  0  0  0
  7 57  1  0  0  0
  8 10  1  0  0  0
  8 33  1  0  0  0
  8 34  1  0  0  0
  8 57  1  0  0  0
  9 10  1  0  0  0
  9 35  1  0  0  0
 10 36  1  0  0  0
 10 37  1  0  0  0
 11 12  1  0  0  0
 11 38  1  0  0  0
 11 39  1  0  0  0
 11 57  1  0  0  0
 12 13  1  0  0  0
 12 40  1  0  0  0
 13 16  2  0  0  0
 13 17  1  0  0  0
 14 42  1  0  0  0
 14 43  1  0  0  0
 14 44  1  0  0  0
 15 19  1  0  0  0
 16 18  1  0  0  0
 16 45  1  0  0  0
 17 20  2  0  0  0
 17 46  1  0  0  0
 18 21  2  0  0  0
 19 22  2  0  0  0
 20 21  1  0  0  0
 20 47  1  0  0  0
 21 48  1  0  0  0
 22 23  1  0  0  0
 22 49  1  0  0  0
 23 24  1  0  0  0
 23 25  2  0  0  0
 24 26  2  0  0  0
 25 28  1  0  0  0
 25 50  1  0  0  0
 26 29  1  0  0  0
 26 51  1  0  0  0
 27 30  1  0  0  0
 27 52  1  0  0  0
 27 53  1  0  0  0
 28 29  2  0  0  0
 28 54  1  0  0  0
 29 55  1  0  0  0
 30 56  1  0  0  0
 57 58  1  0  0  0
M  CHG  2  56  -1  57   1
M  END
> <LID>
L018326

> <PC_CID>
44214654

> <Names>


> <CAS_Numbers>


$$$$
44214655
                    3D
 Structure written by MMmdl.
 61 64  0  0  1  0            999 V2000
    2.4045   -4.8456   -2.5972 O   0  0  0  0  0  0
    1.5266    1.4394   -0.4610 O   0  0  0  0  0  0
   -4.2001   -1.2562   -0.3326 O   0  0  0  0  0  0
    5.5659    4.4785    0.9290 O   0  0  0  0  0  0
   -6.5393   -1.3869    0.8853 O   0  0  0  0  0  0
    0.6239    0.2053    1.2177 N   0  0  0  0  0  0
    2.1903   -3.6489   -0.4745 C   0  0  0  0  0  0
   -0.0485   -4.3448    0.0656 C   0  0  0  0  0  0
    1.8667   -4.8987   -1.2926 C   0  0  1  0  0  0
    0.3391   -4.9017   -1.3095 C   0  0  0  0  0  0
    0.9003   -2.3289    1.2912 C   0  0  0  0  0  0
    0.6687   -1.0505    0.4241 C   0  0  1  0  0  0
   -0.5227   -1.1554   -0.5265 C   0  0  0  0  0  0
    1.1094    1.3644    0.6972 C   0  0  0  0  0  0
    0.0354    0.1640    2.5664 C   0  0  0  0  0  0
   -1.8478   -1.1466   -0.0374 C   0  0  0  0  0  0
   -0.3053   -1.2591   -1.9167 C   0  0  0  0  0  0
    1.1560    2.6248    1.5864 C   0  0  0  0  0  0
   -2.9490   -1.2584   -0.9094 C   0  0  0  0  0  0
   -1.3953   -1.3662   -2.7990 C   0  0  0  0  0  0
    2.0505    3.7135    1.0096 C   0  0  0  0  0  0
   -2.7119   -1.3684   -2.3017 C   0  0  0  0  0  0
    3.4535    3.6518    1.2071 C   0  0  0  0  0  0
    1.4774    4.7820    0.2805 C   0  0  0  0  0  0
    4.2334    4.6951    0.6446 C   0  0  0  0  0  0
    4.3834    2.7717    1.8590 C   0  0  0  0  0  0
    2.2861    5.8014   -0.2636 C   0  0  0  0  0  0
    3.6808    5.7621   -0.0821 C   0  0  0  0  0  0
   -5.3348   -1.4016   -1.1802 C   0  0  0  0  0  0
    5.6267    3.3206    1.6567 C   0  0  0  0  0  0
   -6.6282   -1.4174   -0.3625 C   0  0  0  0  0  0
    3.1902   -3.6747   -0.0406 H   0  0  0  0  0  0
    2.1307   -2.7835   -1.1309 H   0  0  0  0  0  0
   -0.9485   -3.7363    0.0066 H   0  0  0  0  0  0
   -0.2605   -5.1584    0.7599 H   0  0  0  0  0  0
    2.2336   -5.7890   -0.7794 H   0  0  0  0  0  0
   -0.0814   -5.8893   -1.5015 H   0  0  0  0  0  0
   -0.0283   -4.2291   -2.0864 H   0  0  0  0  0  0
    0.0632   -2.5137    1.9628 H   0  0  0  0  0  0
    1.7687   -2.1598    1.9292 H   0  0  0  0  0  0
    1.5619   -0.9736   -0.1939 H   0  0  0  0  0  0
    3.3480   -4.8722   -2.5422 H   0  0  0  0  0  0
   -0.5454    1.0589    2.7908 H   0  0  0  0  0  0
   -0.6610   -0.6583    2.7082 H   0  0  0  0  0  0
    0.8203    0.0700    3.3176 H   0  0  0  0  0  0
   -2.0374   -1.0683    1.0214 H   0  0  0  0  0  0
    0.6980   -1.2563   -2.3166 H   0  0  0  0  0  0
    0.1449    3.0146    1.7097 H   0  0  0  0  0  0
    1.5276    2.3741    2.5805 H   0  0  0  0  0  0
   -1.2215   -1.4469   -3.8620 H   0  0  0  0  0  0
   -3.5230   -1.4535   -3.0087 H   0  0  0  0  0  0
    0.4080    4.8210    0.1317 H   0  0  0  0  0  0
    4.1437    1.8658    2.3951 H   0  0  0  0  0  0
    1.8353    6.6104   -0.8196 H   0  0  0  0  0  0
    4.3144    6.5342   -0.4925 H   0  0  0  0  0  0
    6.6189    3.0166    1.9569 H   0  0  0  0  0  0
   -5.3842   -0.5753   -1.8910 H   0  0  0  0  0  0
   -5.2739   -2.3356   -1.7407 H   0  0  0  0  0  0
   -7.6970   -1.4653   -1.0098 O   0  5  0  0  0  0
    1.1394   -3.6117    0.5678 N   0  3  2  0  0  0
    1.4927   -4.2299    1.2843 H   0  0  0  0  0  0
  1  9  1  0  0  0
  1 42  1  0  0  0
  2 14  2  0  0  0
  3 19  1  0  0  0
  3 29  1  0  0  0
  4 25  1  0  0  0
  4 30  1  0  0  0
  5 31  2  0  0  0
  6 12  1  0  0  0
  6 14  1  0  0  0
  6 15  1  0  0  0
  7  9  1  0  0  0
  7 32  1  0  0  0
  7 33  1  0  0  0
  7 60  1  0  0  0
  8 10  1  0  0  0
  8 34  1  0  0  0
  8 35  1  0  0  0
  8 60  1  0  0  0
  9 10  1  0  0  0
  9 36  1  0  0  0
 10 37  1  0  0  0
 10 38  1  0  0  0
 11 12  1  0  0  0
 11 39  1  0  0  0
 11 40  1  0  0  0
 11 60  1  0  0  0
 12 13  1  0  0  0
 12 41  1  0  0  0
 13 16  2  0  0  0
 13 17  1  0  0  0
 14 18  1  0  0  0
 15 43  1  0  0  0
 15 44  1  0  0  0
 15 45  1  0  0  0
 16 19  1  0  0  0
 16 46  1  0  0  0
 17 20  2  0  0  0
 17 47  1  0  0  0
 18 21  1  0  0  0
 18 48  1  0  0  0
 18 49  1  0  0  0
 19 22  2  0  0  0
 20 22  1  0  0  0
 20 50  1  0  0  0
 21 23  2  0  0  0
 21 24  1  0  0  0
 22 51  1  0  0  0
 23 25  1  0  0  0
 23 26  1  0  0  0
 24 27  2  0  0  0
 24 52  1  0  0  0
 25 28  2  0  0  0
 26 30  2  0  0  0
 26 53  1  0  0  0
 27 28  1  0  0  0
 27 54  1  0  0  0
 28 55  1  0  0  0
 29 31  1  0  0  0
 29 57  1  0  0  0
 29 58  1  0  0  0
 30 56  1  0  0  0
 31 59  1  0  0  0
 60 61  1  0  0  0
M  CHG  2  59  -1  60   1
M  END
> <LID>
L018327

> <PC_CID>
44214655

> <Names>


> <CAS_Numbers>


$$$$
44214652
                    3D
 Structure written by MMmdl.
 61 63  0  0  1  0            999 V2000
    6.7624   -3.4654   -0.5091 S   0  0  0  0  0  0
   -1.9446    6.3665    1.3739 O   0  0  0  0  0  0
    1.9800    0.4368    2.2361 O   0  0  0  0  0  0
   -4.5810   -0.5158   -0.7324 O   0  0  0  0  0  0
    6.5567   -4.8205    0.0253 O   0  0  0  0  0  0
    7.0219   -3.2796   -1.9451 O   0  0  0  0  0  0
   -6.4080   -0.5156   -2.6378 O   0  0  0  0  0  0
    0.9891    0.2374    0.1910 N   0  0  0  0  0  0
   -0.9279    4.2113    0.8159 C   0  0  0  0  0  0
   -1.3199    5.6217    0.3502 C   0  0  1  0  0  0
   -1.6852    4.1102   -1.4484 C   0  0  0  0  0  0
   -2.2539    5.3846   -0.8332 C   0  0  0  0  0  0
   -0.2307    2.2710   -0.6156 C   0  0  0  0  0  0
   -0.1012    1.1912    0.4907 C   0  0  1  0  0  0
   -1.4048    0.4740    0.8515 C   0  0  0  0  0  0
    0.8669   -0.4998   -1.0761 C   0  0  0  0  0  0
    1.9807   -0.0102    1.0886 C   0  0  0  0  0  0
   -2.4369    0.2717   -0.0938 C   0  0  0  0  0  0
   -1.5792   -0.0085    2.1654 C   0  0  0  0  0  0
   -3.6337   -0.3827    0.2586 C   0  0  0  0  0  0
    3.1383   -0.8716    0.6645 C   0  0  0  0  0  0
   -2.7662   -0.6699    2.5296 C   0  0  0  0  0  0
   -3.7920   -0.8560    1.5842 C   0  0  0  0  0  0
    3.4878   -2.0004    1.4387 C   0  0  0  0  0  0
    3.9266   -0.5296   -0.4590 C   0  0  0  0  0  0
    5.3424   -2.4718   -0.0673 C   0  0  0  0  0  0
    4.5865   -2.8028    1.0742 C   0  0  0  0  0  0
    5.0263   -1.3288   -0.8273 C   0  0  0  0  0  0
   -5.8220   -1.1310   -0.4035 C   0  0  0  0  0  0
    8.1430   -2.6902    0.4230 C   0  0  0  0  0  0
   -6.7626   -1.1359   -1.6104 C   0  0  0  0  0  0
    0.1296    4.1784    1.0825 H   0  0  0  0  0  0
   -1.4973    3.9031    1.6941 H   0  0  0  0  0  0
   -0.4297    6.1525    0.0092 H   0  0  0  0  0  0
   -2.4090    3.5856   -2.0731 H   0  0  0  0  0  0
   -0.8190    4.3556   -2.0656 H   0  0  0  0  0  0
   -2.2796    6.2214   -1.5320 H   0  0  0  0  0  0
   -3.2726    5.2003   -0.4872 H   0  0  0  0  0  0
   -0.4886    1.8115   -1.5699 H   0  0  0  0  0  0
    0.7285    2.7669   -0.7737 H   0  0  0  0  0  0
    0.1572    1.7549    1.3880 H   0  0  0  0  0  0
   -2.1612    7.2237    1.0386 H   0  0  0  0  0  0
    1.4894   -0.0445   -1.8464 H   0  0  0  0  0  0
    1.1577   -1.5459   -0.9702 H   0  0  0  0  0  0
   -0.1550   -0.5100   -1.4520 H   0  0  0  0  0  0
   -2.3289    0.6166   -1.1108 H   0  0  0  0  0  0
   -0.8004    0.1273    2.9020 H   0  0  0  0  0  0
   -2.8912   -1.0354    3.5383 H   0  0  0  0  0  0
   -4.6893   -1.3666    1.8993 H   0  0  0  0  0  0
    2.9111   -2.2579    2.3157 H   0  0  0  0  0  0
    3.6970    0.3515   -1.0404 H   0  0  0  0  0  0
    4.8452   -3.6650    1.6711 H   0  0  0  0  0  0
    5.6236   -1.0603   -1.6863 H   0  0  0  0  0  0
   -5.6598   -2.1614   -0.0836 H   0  0  0  0  0  0
   -6.3120   -0.5909    0.4080 H   0  0  0  0  0  0
    7.9287   -2.7301    1.4907 H   0  0  0  0  0  0
    9.0658   -3.2319    0.2174 H   0  0  0  0  0  0
    8.2544   -1.6519    0.1118 H   0  0  0  0  0  0
   -7.8364   -1.7628   -1.4791 O   0  5  0  0  0  0
   -1.2630    3.2878   -0.2960 N   0  3  1  0  0  0
   -2.0894    2.7855   -0.0017 H   0  0  0  0  0  0
  1  5  2  0  0  0
  1  6  2  0  0  0
  1 26  1  0  0  0
  1 30  1  0  0  0
  2 10  1  0  0  0
  2 42  1  0  0  0
  3 17  2  0  0  0
  4 20  1  0  0  0
  4 29  1  0  0  0
  7 31  2  0  0  0
  8 14  1  0  0  0
  8 16  1  0  0  0
  8 17  1  0  0  0
  9 10  1  0  0  0
  9 32  1  0  0  0
  9 33  1  0  0  0
  9 60  1  0  0  0
 10 12  1  0  0  0
 10 34  1  0  0  0
 11 12  1  0  0  0
 11 35  1  0  0  0
 11 36  1  0  0  0
 11 60  1  0  0  0
 12 37  1  0  0  0
 12 38  1  0  0  0
 13 14  1  0  0  0
 13 39  1  0  0  0
 13 40  1  0  0  0
 13 60  1  0  0  0
 14 15  1  0  0  0
 14 41  1  0  0  0
 15 18  2  0  0  0
 15 19  1  0  0  0
 16 43  1  0  0  0
 16 44  1  0  0  0
 16 45  1  0  0  0
 17 21  1  0  0  0
 18 20  1  0  0  0
 18 46  1  0  0  0
 19 22  2  0  0  0
 19 47  1  0  0  0
 20 23  2  0  0  0
 21 24  2  0  0  0
 21 25  1  0  0  0
 22 23  1  0  0  0
 22 48  1  0  0  0
 23 49  1  0  0  0
 24 27  1  0  0  0
 24 50  1  0  0  0
 25 28  2  0  0  0
 25 51  1  0  0  0
 26 27  2  0  0  0
 26 28  1  0  0  0
 27 52  1  0  0  0
 28 53  1  0  0  0
 29 31  1  0  0  0
 29 54  1  0  0  0
 29 55  1  0  0  0
 30 56  1  0  0  0
 30 57  1  0  0  0
 30 58  1  0  0  0
 31 59  1  0  0  0
 60 61  1  0  0  0
M  CHG  2  59  -1  60   1
M  END
> <LID>
L018324

> <PC_CID>
44214652

> <Names>


> <CAS_Numbers>


$$$$
44214499
                    3D
 Structure written by MMmdl.
 58 60  0  0  1  0            999 V2000
   -5.0884   -0.5275    2.0358 O   0  0  0  0  0  0
   -6.1971    0.6878   -2.6892 O   0  0  0  0  0  0
    1.1941    0.7967    1.7879 N   0  0  0  0  0  0
   -4.8291   -0.2279   -0.1949 N   0  0  0  0  0  0
    2.0996    0.8878    0.6243 C   0  0  1  0  0  0
    3.5844    1.1813    0.9691 C   0  0  0  0  0  0
    4.1387    2.5595   -1.0538 C   0  0  0  0  0  0
    5.8915    1.2678    0.0210 C   0  0  0  0  0  0
    1.9945   -0.3332   -0.2867 C   0  0  0  0  0  0
    5.5023    3.0030   -1.5023 C   0  0  0  0  0  0
    6.4612    2.2959   -0.9149 C   0  0  0  0  0  0
   -0.1345    0.5555    1.6189 C   0  0  0  0  0  0
    1.7817    0.7826    3.1296 C   0  0  0  0  0  0
    2.2368   -1.6286    0.2212 C   0  0  0  0  0  0
    1.6566   -0.1736   -1.6481 C   0  0  0  0  0  0
   -0.8269   -0.3356    2.4734 C   0  0  0  0  0  0
   -0.8585    1.1782    0.5742 C   0  0  0  0  0  0
    2.1437   -2.7513   -0.6236 C   0  0  0  0  0  0
    1.5640   -1.2967   -2.4925 C   0  0  0  0  0  0
   -2.1984   -0.5959    2.2894 C   0  0  0  0  0  0
   -2.2301    0.9192    0.3887 C   0  0  0  0  0  0
   -2.9112    0.0206    1.2397 C   0  0  0  0  0  0
    1.8080   -2.5856   -1.9809 C   0  0  0  0  0  0
   -4.3790   -0.2510    1.0683 C   0  0  0  0  0  0
   -6.2108   -0.4729   -0.5858 C   0  0  0  0  0  0
   -6.3314   -0.5960   -2.1139 C   0  0  1  0  0  0
   -7.6958   -1.1543   -2.5391 C   0  0  0  0  0  0
    1.7550    1.7474    0.0505 H   0  0  0  0  0  0
    3.9929    0.3585    1.5580 H   0  0  0  0  0  0
    3.6796    2.0858    1.5711 H   0  0  0  0  0  0
    3.6738    3.3521   -0.4658 H   0  0  0  0  0  0
    3.4986    2.3215   -1.9035 H   0  0  0  0  0  0
    6.2764    0.2707   -0.1947 H   0  0  0  0  0  0
    6.1416    1.5345    1.0490 H   0  0  0  0  0  0
    5.6534    3.8132   -2.2007 H   0  0  0  0  0  0
    7.5234    2.4345   -1.0549 H   0  0  0  0  0  0
    1.0201    0.8309    3.9081 H   0  0  0  0  0  0
    2.3646   -0.1255    3.2851 H   0  0  0  0  0  0
    2.4257    1.6455    3.2931 H   0  0  0  0  0  0
    2.4918   -1.7645    1.2620 H   0  0  0  0  0  0
    1.4624    0.8098   -2.0504 H   0  0  0  0  0  0
   -0.3126   -0.8473    3.2733 H   0  0  0  0  0  0
   -0.3780    1.8756   -0.0946 H   0  0  0  0  0  0
    2.3283   -3.7401   -0.2300 H   0  0  0  0  0  0
    1.3034   -1.1700   -3.5331 H   0  0  0  0  0  0
   -2.6980   -1.2822    2.9582 H   0  0  0  0  0  0
   -2.7515    1.4255   -0.4107 H   0  0  0  0  0  0
    1.7355   -3.4469   -2.6286 H   0  0  0  0  0  0
   -6.5402   -1.4035   -0.1202 H   0  0  0  0  0  0
   -6.8566    0.3194   -0.2032 H   0  0  0  0  0  0
   -4.1770   -0.0081   -0.9335 H   0  0  0  0  0  0
   -5.5451   -1.2446   -2.5031 H   0  0  0  0  0  0
   -7.7733   -1.2252   -3.6245 H   0  0  0  0  0  0
   -7.8521   -2.1545   -2.1340 H   0  0  0  0  0  0
   -8.5120   -0.5226   -2.1864 H   0  0  0  0  0  0
   -6.2678    0.6068   -3.6282 H   0  0  0  0  0  0
    4.4266    1.3422   -0.2413 N   0  3  0  0  0  0
    4.2226    0.5549   -0.8415 H   0  0  0  0  0  0
  1 24  2  0  0  0
  2 26  1  0  0  0
  2 56  1  0  0  0
  3  5  1  0  0  0
  3 12  1  0  0  0
  3 13  1  0  0  0
  4 24  1  0  0  0
  4 25  1  0  0  0
  4 51  1  0  0  0
  5  6  1  0  0  0
  5  9  1  0  0  0
  5 28  1  0  0  0
  6 29  1  0  0  0
  6 30  1  0  0  0
  6 57  1  0  0  0
  7 10  1  0  0  0
  7 31  1  0  0  0
  7 32  1  0  0  0
  7 57  1  0  0  0
  8 11  1  0  0  0
  8 33  1  0  0  0
  8 34  1  0  0  0
  8 57  1  0  0  0
  9 14  2  0  0  0
  9 15  1  0  0  0
 10 11  2  0  0  0
 10 35  1  0  0  0
 11 36  1  0  0  0
 12 16  2  0  0  0
 12 17  1  0  0  0
 13 37  1  0  0  0
 13 38  1  0  0  0
 13 39  1  0  0  0
 14 18  1  0  0  0
 14 40  1  0  0  0
 15 19  2  0  0  0
 15 41  1  0  0  0
 16 20  1  0  0  0
 16 42  1  0  0  0
 17 21  2  0  0  0
 17 43  1  0  0  0
 18 23  2  0  0  0
 18 44  1  0  0  0
 19 23  1  0  0  0
 19 45  1  0  0  0
 20 22  2  0  0  0
 20 46  1  0  0  0
 21 22  1  0  0  0
 21 47  1  0  0  0
 22 24  1  0  0  0
 23 48  1  0  0  0
 25 26  1  0  0  0
 25 49  1  0  0  0
 25 50  1  0  0  0
 26 27  1  0  0  0
 26 52  1  0  0  0
 27 53  1  0  0  0
 27 54  1  0  0  0
 27 55  1  0  0  0
 57 58  1  0  0  0
M  CHG  1  57   1
M  END
> <LID>
L017858

> <PC_CID>
44214499

> <Names>


> <CAS_Numbers>


$$$$
44214650
                    3D
 Structure written by MMmdl.
 78 85  0  0  1  0            999 V2000
    2.4086   10.5176   -1.9136 O   0  0  0  0  0  0
    1.8729    8.5147   -4.0526 O   0  0  0  0  0  0
    0.7054    6.4724   -1.2419 O   0  0  0  0  0  0
    3.3099   13.3303   -1.8706 O   0  0  0  0  0  0
    0.7816    5.2694   -3.1527 N   0  0  0  0  0  0
    3.4472    8.7863   -0.5957 C   0  0  2  0  0  0
    4.4752    7.7162   -1.0527 C   0  0  1  0  0  0
    2.3744    9.0900   -1.7034 C   0  0  2  0  0  0
    5.5047    7.6088    0.1074 C   0  0  1  0  0  0
    2.7359    8.2399   -2.9674 C   0  0  1  0  0  0
    3.7077    6.4154   -1.4378 C   0  0  0  0  0  0
    2.7783    8.4122    0.7533 C   0  0  0  0  0  0
    2.6901    6.7077   -2.6023 C   0  0  1  0  0  0
    4.1761   10.0903   -0.4908 C   0  0  0  0  0  0
    5.0825    8.1992   -2.3759 C   0  0  0  0  0  0
    6.2202    8.9763    0.3930 C   0  0  0  0  0  0
    3.7874    8.0340    1.8497 C   0  0  0  0  0  0
    4.1919    8.5039   -3.3347 C   0  0  0  0  0  0
    5.4453   10.2671    0.0848 C   0  0  0  0  0  0
    3.4598   11.0283   -1.2058 C   0  0  0  0  0  0
    5.7394    6.5837    2.3735 C   0  0  0  0  0  0
    5.0505    5.6412    3.3427 C   0  0  0  0  0  0
    1.2883    6.1518   -2.2767 C   0  0  0  0  0  0
    5.9406   11.5882    0.0757 C   0  0  0  0  0  0
    5.7965    5.1333    4.5557 C   0  0  0  0  0  0
    4.6528    6.0986    4.7295 C   0  0  0  0  0  0
    3.9705   12.3424   -1.2017 C   0  0  0  0  0  0
    5.1879   12.6246   -0.5321 C   0  0  0  0  0  0
   -0.4724    4.5385   -2.9926 C   0  0  0  0  0  0
   -0.2477    3.1057   -2.4652 C   0  0  0  0  0  0
    0.4258    3.0050   -1.0823 C   0  0  0  0  0  0
   -0.4499    3.5152    0.0742 C   0  0  0  0  0  0
    0.3080    3.5686    1.3875 C   0  0  0  0  0  0
    0.5917    2.3794    2.0915 C   0  0  0  0  0  0
    0.7334    4.8083    1.9108 C   0  0  0  0  0  0
    1.2960    2.4296    3.3103 C   0  0  0  0  0  0
    1.4322    4.8582    3.1322 C   0  0  0  0  0  0
    1.7153    3.6689    3.8314 C   0  0  0  0  0  0
    1.3673    8.8632   -1.3579 H   0  0  0  0  0  0
    6.2593    6.8727   -0.1736 H   0  0  0  0  0  0
    4.4231    5.6620   -1.7706 H   0  0  0  0  0  0
    3.2171    5.9709   -0.5716 H   0  0  0  0  0  0
    2.1060    7.5686    0.6110 H   0  0  0  0  0  0
    2.1454    9.2297    1.1012 H   0  0  0  0  0  0
    3.0459    6.1612   -3.4787 H   0  0  0  0  0  0
    6.1500    8.3129   -2.4948 H   0  0  0  0  0  0
    6.6054    9.0328    1.4101 H   0  0  0  0  0  0
    7.1068    9.0183   -0.2405 H   0  0  0  0  0  0
    4.2637    8.9266    2.2562 H   0  0  0  0  0  0
    3.2479    7.5787    2.6797 H   0  0  0  0  0  0
    4.4648    8.8741   -4.3121 H   0  0  0  0  0  0
    6.2008    7.4049    2.9230 H   0  0  0  0  0  0
    6.5484    6.0251    1.9014 H   0  0  0  0  0  0
    4.4088    4.9045    2.8627 H   0  0  0  0  0  0
    1.8272    9.4523   -4.1659 H   0  0  0  0  0  0
    6.9174   11.8028    0.4838 H   0  0  0  0  0  0
    6.8020    5.5116    4.7302 H   0  0  0  0  0  0
    5.6298    4.0994    4.8515 H   0  0  0  0  0  0
    3.7263    5.7082    5.1446 H   0  0  0  0  0  0
    4.8972    7.1188    5.0190 H   0  0  0  0  0  0
    5.5828   13.6299   -0.5448 H   0  0  0  0  0  0
    1.3224    5.0649   -3.9805 H   0  0  0  0  0  0
    2.5190   13.0192   -2.2844 H   0  0  0  0  0  0
   -1.1695    5.0843   -2.3556 H   0  0  0  0  0  0
   -0.9488    4.4867   -3.9719 H   0  0  0  0  0  0
   -1.2035    2.5813   -2.4365 H   0  0  0  0  0  0
    0.3638    2.5637   -3.1876 H   0  0  0  0  0  0
    0.6851    1.9630   -0.8920 H   0  0  0  0  0  0
    1.3738    3.5426   -1.0938 H   0  0  0  0  0  0
   -0.8352    4.5103   -0.1452 H   0  0  0  0  0  0
   -1.3229    2.8723    0.1930 H   0  0  0  0  0  0
    0.2702    1.4262    1.6977 H   0  0  0  0  0  0
    0.5202    5.7250    1.3809 H   0  0  0  0  0  0
    1.5120    1.5174    3.8467 H   0  0  0  0  0  0
    1.7489    5.8090    3.5336 H   0  0  0  0  0  0
    2.2519    3.7062    4.7679 H   0  0  0  0  0  0
    4.8134    7.0920    1.3288 N   0  3  2  0  0  0
    4.3062    6.2774    1.0131 H   0  0  0  0  0  0
  1  8  1  0  0  0
  1 20  1  0  0  0
  2 10  1  0  0  0
  2 55  1  0  0  0
  3 23  2  0  0  0
  4 27  1  0  0  0
  4 63  1  0  0  0
  5 23  1  0  0  0
  5 29  1  0  0  0
  5 62  1  0  0  0
  6  7  1  0  0  0
  6  8  1  0  0  0
  6 12  1  0  0  0
  6 14  1  0  0  0
  7  9  1  0  0  0
  7 11  1  0  0  0
  7 15  1  0  0  0
  8 10  1  0  0  0
  8 39  1  0  0  0
  9 16  1  0  0  0
  9 40  1  0  0  0
  9 77  1  0  0  0
 10 13  1  0  0  0
 10 18  1  0  0  0
 11 13  1  0  0  0
 11 41  1  0  0  0
 11 42  1  0  0  0
 12 17  1  0  0  0
 12 43  1  0  0  0
 12 44  1  0  0  0
 13 23  1  0  0  0
 13 45  1  0  0  0
 14 19  2  0  0  0
 14 20  1  0  0  0
 15 18  2  0  0  0
 15 46  1  0  0  0
 16 19  1  0  0  0
 16 47  1  0  0  0
 16 48  1  0  0  0
 17 49  1  0  0  0
 17 50  1  0  0  0
 17 77  1  0  0  0
 18 51  1  0  0  0
 19 24  1  0  0  0
 20 27  2  0  0  0
 21 22  1  0  0  0
 21 52  1  0  0  0
 21 53  1  0  0  0
 21 77  1  0  0  0
 22 25  1  0  0  0
 22 26  1  0  0  0
 22 54  1  0  0  0
 24 28  2  0  0  0
 24 56  1  0  0  0
 25 26  1  0  0  0
 25 57  1  0  0  0
 25 58  1  0  0  0
 26 59  1  0  0  0
 26 60  1  0  0  0
 27 28  1  0  0  0
 28 61  1  0  0  0
 29 30  1  0  0  0
 29 64  1  0  0  0
 29 65  1  0  0  0
 30 31  1  0  0  0
 30 66  1  0  0  0
 30 67  1  0  0  0
 31 32  1  0  0  0
 31 68  1  0  0  0
 31 69  1  0  0  0
 32 33  1  0  0  0
 32 70  1  0  0  0
 32 71  1  0  0  0
 33 34  2  0  0  0
 33 35  1  0  0  0
 34 36  1  0  0  0
 34 72  1  0  0  0
 35 37  2  0  0  0
 35 73  1  0  0  0
 36 38  2  0  0  0
 36 74  1  0  0  0
 37 38  1  0  0  0
 37 75  1  0  0  0
 38 76  1  0  0  0
 77 78  1  0  0  0
M  CHG  1  77   1
M  END
> <LID>
L018287

> <PC_CID>
44214650

> <Names>


> <CAS_Numbers>


$$$$
19019522
                    3D
 Structure written by MMmdl.
 63 66  0  0  1  0            999 V2000
   -1.9477   -5.1462    1.1682 F   0  0  0  0  0  0
   -0.1001    0.7033    0.3945 O   0  0  0  0  0  0
    6.7124   -0.5354   -0.3285 O   0  0  0  0  0  0
   -1.6778    0.6014   -1.2457 N   0  0  0  0  0  0
   -3.8146    0.7992    0.0486 C   0  0  0  0  0  0
   -2.7205   -0.1802   -0.5268 C   0  0  2  0  0  0
   -4.0154    1.9938   -0.9319 C   0  0  0  0  0  0
   -2.1597   -1.2748    0.4365 C   0  0  0  0  0  0
   -3.6758    1.6139   -2.3812 C   0  0  0  0  0  0
   -2.1942    1.1941   -2.5003 C   0  0  0  0  0  0
   -5.1777    0.0872    0.2091 C   0  0  0  0  0  0
   -3.4090    1.3728    1.4234 C   0  0  0  0  0  0
   -2.7351   -3.1135    2.0174 C   0  0  0  0  0  0
   -3.6505   -3.1821   -0.1920 C   0  0  0  0  0  0
   -3.0501   -4.5685    1.6475 C   0  0  1  0  0  0
   -4.0821   -4.4539    0.5318 C   0  0  0  0  0  0
   -0.4396    0.9094   -0.7708 C   0  0  0  0  0  0
    0.5998    1.5088   -1.7400 C   0  0  0  0  0  0
    2.0295    1.2495   -1.2880 C   0  0  0  0  0  0
    2.7238    2.2177   -0.5345 C   0  0  0  0  0  0
    4.0495    1.9844   -0.1128 C   0  0  0  0  0  0
    2.6704    0.0404   -1.6243 C   0  0  0  0  0  0
    4.6921    0.7629   -0.4441 C   0  0  0  0  0  0
    4.7595    3.0555    0.7002 C   0  0  0  0  0  0
    3.9921   -0.2005   -1.2052 C   0  0  0  0  0  0
    6.2859    2.9447    0.6047 C   0  0  0  0  0  0
    6.7703    1.5162    0.8859 C   0  0  0  0  0  0
    6.0927    0.4809   -0.0166 C   0  0  0  0  0  0
   -3.1961   -0.7545   -1.3230 H   0  0  0  0  0  0
   -5.0294    2.3912   -0.8740 H   0  0  0  0  0  0
   -3.3664    2.8245   -0.6491 H   0  0  0  0  0  0
   -1.7590   -0.8143    1.3385 H   0  0  0  0  0  0
   -1.3291   -1.8048   -0.0330 H   0  0  0  0  0  0
   -3.8824    2.4476   -3.0532 H   0  0  0  0  0  0
   -4.3248    0.7993   -2.7052 H   0  0  0  0  0  0
   -1.6459    2.0972   -2.7681 H   0  0  0  0  0  0
   -2.0591    0.4939   -3.3255 H   0  0  0  0  0  0
   -5.9603    0.7927    0.4909 H   0  0  0  0  0  0
   -5.4940   -0.3884   -0.7197 H   0  0  0  0  0  0
   -5.1674   -0.6711    0.9891 H   0  0  0  0  0  0
   -3.3615    0.6006    2.1911 H   0  0  0  0  0  0
   -2.4353    1.8615    1.3850 H   0  0  0  0  0  0
   -4.1302    2.1156    1.7663 H   0  0  0  0  0  0
   -3.3099   -2.8087    2.8926 H   0  0  0  0  0  0
   -1.6787   -2.9889    2.2622 H   0  0  0  0  0  0
   -2.8389   -3.4154   -0.8834 H   0  0  0  0  0  0
   -4.4635   -2.7382   -0.7668 H   0  0  0  0  0  0
   -3.3913   -5.1659    2.4938 H   0  0  0  0  0  0
   -4.1102   -5.3284   -0.1194 H   0  0  0  0  0  0
   -5.0770   -4.3188    0.9584 H   0  0  0  0  0  0
    0.4800    1.0838   -2.7374 H   0  0  0  0  0  0
    0.4354    2.5837   -1.8240 H   0  0  0  0  0  0
    2.2344    3.1451   -0.2744 H   0  0  0  0  0  0
    2.1489   -0.7081   -2.2027 H   0  0  0  0  0  0
    4.4396    4.0444    0.3694 H   0  0  0  0  0  0
    4.4456    2.9543    1.7397 H   0  0  0  0  0  0
    6.6084    3.2401   -0.3948 H   0  0  0  0  0  0
    6.7546    3.6446    1.2969 H   0  0  0  0  0  0
    4.4622   -1.1358   -1.4735 H   0  0  0  0  0  0
    6.5648    1.2516    1.9232 H   0  0  0  0  0  0
    7.8506    1.4558    0.7513 H   0  0  0  0  0  0
   -3.1651   -2.2736    0.8719 N   0  3  2  0  0  0
   -3.9688   -1.7576    1.2002 H   0  0  0  0  0  0
  1 15  1  0  0  0
  2 17  2  0  0  0
  3 28  2  0  0  0
  4  6  1  0  0  0
  4 10  1  0  0  0
  4 17  1  0  0  0
  5  6  1  0  0  0
  5  7  1  0  0  0
  5 11  1  0  0  0
  5 12  1  0  0  0
  6  8  1  0  0  0
  6 29  1  0  0  0
  7  9  1  0  0  0
  7 30  1  0  0  0
  7 31  1  0  0  0
  8 32  1  0  0  0
  8 33  1  0  0  0
  8 62  1  0  0  0
  9 10  1  0  0  0
  9 34  1  0  0  0
  9 35  1  0  0  0
 10 36  1  0  0  0
 10 37  1  0  0  0
 11 38  1  0  0  0
 11 39  1  0  0  0
 11 40  1  0  0  0
 12 41  1  0  0  0
 12 42  1  0  0  0
 12 43  1  0  0  0
 13 15  1  0  0  0
 13 44  1  0  0  0
 13 45  1  0  0  0
 13 62  1  0  0  0
 14 16  1  0  0  0
 14 46  1  0  0  0
 14 47  1  0  0  0
 14 62  1  0  0  0
 15 16  1  0  0  0
 15 48  1  0  0  0
 16 49  1  0  0  0
 16 50  1  0  0  0
 17 18  1  0  0  0
 18 19  1  0  0  0
 18 51  1  0  0  0
 18 52  1  0  0  0
 19 20  2  0  0  0
 19 22  1  0  0  0
 20 21  1  0  0  0
 20 53  1  0  0  0
 21 23  2  0  0  0
 21 24  1  0  0  0
 22 25  2  0  0  0
 22 54  1  0  0  0
 23 25  1  0  0  0
 23 28  1  0  0  0
 24 26  1  0  0  0
 24 55  1  0  0  0
 24 56  1  0  0  0
 25 59  1  0  0  0
 26 27  1  0  0  0
 26 57  1  0  0  0
 26 58  1  0  0  0
 27 28  1  0  0  0
 27 60  1  0  0  0
 27 61  1  0  0  0
 62 63  1  0  0  0
M  CHG  1  62   1
M  END
> <LID>
L005490

> <PC_CID>
19019522

> <Names>


> <CAS_Numbers>


$$$$
44210943
                    3D
 Structure written by MMmdl.
 54 57  0  0  1  0            999 V2000
   -5.8370    1.1408   -1.0004 Cl  0  0  0  0  0  0
   -7.5171   -1.5408   -0.6072 Cl  0  0  0  0  0  0
   -1.0349   -0.6824   -1.1425 O   0  0  0  0  0  0
    0.4657   -0.6433    0.5604 N   0  0  0  0  0  0
   -1.7212   -1.3644    0.9084 N   0  0  0  0  0  0
    1.4958    0.0660   -0.2340 C   0  0  1  0  0  0
    1.5941    1.5454    0.2141 C   0  0  0  0  0  0
    2.8889    3.6611   -0.0386 C   0  0  0  0  0  0
    2.1558    2.5360   -2.0154 C   0  0  0  0  0  0
    2.8414    4.6661   -1.1966 C   0  0  0  0  0  0
    2.8836    3.8028   -2.4523 C   0  0  0  0  0  0
    0.9206   -1.1267    1.8763 C   0  0  0  0  0  0
   -0.2306   -1.2627    2.8652 C   0  0  0  0  0  0
    2.8284   -0.6889   -0.2887 C   0  0  0  0  0  0
   -1.3706   -2.0068    2.1823 C   0  0  0  0  0  0
   -0.7665   -0.9193    0.0380 C   0  0  0  0  0  0
    3.9094   -0.3755    0.5695 C   0  0  0  0  0  0
    2.9734   -1.7455   -1.2145 C   0  0  0  0  0  0
   -3.1008   -1.3979    0.5298 C   0  0  0  0  0  0
    5.1149   -1.0991    0.4907 C   0  0  0  0  0  0
    4.1789   -2.4688   -1.2931 C   0  0  0  0  0  0
   -3.7378   -0.2494    0.0015 C   0  0  0  0  0  0
   -3.8585   -2.5779    0.7101 C   0  0  0  0  0  0
    5.2513   -2.1446   -0.4415 C   0  0  0  0  0  0
   -5.1003   -0.2824   -0.3549 C   0  0  0  0  0  0
   -5.2203   -2.6126    0.3543 C   0  0  0  0  0  0
   -5.8446   -1.4689   -0.1793 C   0  0  0  0  0  0
    1.1895    0.1008   -1.2795 H   0  0  0  0  0  0
    0.6109    2.0170    0.1686 H   0  0  0  0  0  0
    1.9023    1.5996    1.2585 H   0  0  0  0  0  0
    3.8890    3.6092    0.3931 H   0  0  0  0  0  0
    2.2027    3.9607    0.7553 H   0  0  0  0  0  0
    1.0777    2.6921   -2.0827 H   0  0  0  0  0  0
    2.4127    1.6766   -2.6356 H   0  0  0  0  0  0
    3.6531    5.3934   -1.1580 H   0  0  0  0  0  0
    1.9004    5.2173   -1.1651 H   0  0  0  0  0  0
    2.4206    4.2831   -3.3149 H   0  0  0  0  0  0
    3.9178    3.5693   -2.7096 H   0  0  0  0  0  0
    1.6748   -0.4675    2.3049 H   0  0  0  0  0  0
    1.3960   -2.0989    1.7371 H   0  0  0  0  0  0
   -0.5700   -0.2739    3.1775 H   0  0  0  0  0  0
    0.0922   -1.7868    3.7653 H   0  0  0  0  0  0
   -1.0835   -3.0419    1.9906 H   0  0  0  0  0  0
   -2.2292   -2.0332    2.8551 H   0  0  0  0  0  0
    3.8284    0.4134    1.3015 H   0  0  0  0  0  0
    2.1554   -2.0068   -1.8703 H   0  0  0  0  0  0
    5.9354   -0.8544    1.1492 H   0  0  0  0  0  0
    4.2799   -3.2741   -2.0058 H   0  0  0  0  0  0
   -3.1830    0.6682   -0.1297 H   0  0  0  0  0  0
   -3.3998   -3.4691    1.1127 H   0  0  0  0  0  0
    6.1758   -2.7000   -0.5004 H   0  0  0  0  0  0
   -5.7872   -3.5217    0.4914 H   0  0  0  0  0  0
    2.5498    2.3330   -0.6042 N   0  3  0  0  0  0
    3.4169    1.8144   -0.6248 H   0  0  0  0  0  0
  1 25  1  0  0  0
  2 27  1  0  0  0
  3 16  2  0  0  0
  4  6  1  0  0  0
  4 12  1  0  0  0
  4 16  1  0  0  0
  5 15  1  0  0  0
  5 16  1  0  0  0
  5 19  1  0  0  0
  6  7  1  0  0  0
  6 14  1  0  0  0
  6 28  1  0  0  0
  7 29  1  0  0  0
  7 30  1  0  0  0
  7 53  1  0  0  0
  8 10  1  0  0  0
  8 31  1  0  0  0
  8 32  1  0  0  0
  8 53  1  0  0  0
  9 11  1  0  0  0
  9 33  1  0  0  0
  9 34  1  0  0  0
  9 53  1  0  0  0
 10 11  1  0  0  0
 10 35  1  0  0  0
 10 36  1  0  0  0
 11 37  1  0  0  0
 11 38  1  0  0  0
 12 13  1  0  0  0
 12 39  1  0  0  0
 12 40  1  0  0  0
 13 15  1  0  0  0
 13 41  1  0  0  0
 13 42  1  0  0  0
 14 17  2  0  0  0
 14 18  1  0  0  0
 15 43  1  0  0  0
 15 44  1  0  0  0
 17 20  1  0  0  0
 17 45  1  0  0  0
 18 21  2  0  0  0
 18 46  1  0  0  0
 19 22  2  0  0  0
 19 23  1  0  0  0
 20 24  2  0  0  0
 20 47  1  0  0  0
 21 24  1  0  0  0
 21 48  1  0  0  0
 22 25  1  0  0  0
 22 49  1  0  0  0
 23 26  2  0  0  0
 23 50  1  0  0  0
 24 51  1  0  0  0
 25 27  2  0  0  0
 26 27  1  0  0  0
 26 52  1  0  0  0
 53 54  1  0  0  0
M  CHG  1  53   1
M  END
> <LID>
L008589

> <PC_CID>
44210943

> <Names>


> <CAS_Numbers>


$$$$
179340
                    3D
 Structure written by MMmdl.
 62 65  0  0  1  0            999 V2000
   -4.8494    4.4173   -2.3257 O   0  0  0  0  0  0
   -0.0863   -0.2506    1.8904 O   0  0  0  0  0  0
    0.1088    0.0527   -0.3469 N   0  0  0  0  0  0
   -3.0868    2.9330   -1.4849 C   0  0  0  0  0  0
   -3.2894    3.5308    0.8195 C   0  0  0  0  0  0
   -3.8144    4.2821   -1.3748 C   0  0  2  0  0  0
   -4.3549    4.3059    0.0521 C   0  0  0  0  0  0
   -1.5246    1.8969    0.1847 C   0  0  0  0  0  0
   -1.2789    0.5393   -0.5292 C   0  0  2  0  0  0
   -2.3180   -0.5513   -0.2476 C   0  0  0  0  0  0
    0.6103   -0.2869    0.8755 C   0  0  0  0  0  0
    2.0862   -0.7266    1.0702 C   0  0  0  0  0  0
    0.8777   -0.0270   -1.5968 C   0  0  0  0  0  0
   -2.5389   -1.5476   -1.2239 C   0  0  0  0  0  0
   -3.0476   -0.6054    0.9638 C   0  0  0  0  0  0
    3.0988    0.2806    0.5096 C   0  0  0  0  0  0
    2.3654   -2.2123    0.7842 C   0  0  0  0  0  0
   -3.4784   -2.5727   -1.0024 C   0  0  0  0  0  0
   -3.9873   -1.6305    1.1853 C   0  0  0  0  0  0
   -4.2048   -2.6135    0.2021 C   0  0  0  0  0  0
    4.0019   -0.0618   -0.5254 C   0  0  0  0  0  0
    3.5441   -2.7839    1.3162 C   0  0  0  0  0  0
    3.1449    1.5857    1.0506 C   0  0  0  0  0  0
    1.4904   -3.0403    0.0359 C   0  0  0  0  0  0
    4.9207    0.8863   -1.0152 C   0  0  0  0  0  0
    3.8536   -4.1397    1.0964 C   0  0  0  0  0  0
    4.0637    2.5337    0.5610 C   0  0  0  0  0  0
    1.7995   -4.3966   -0.1836 C   0  0  0  0  0  0
    4.9516    2.1847   -0.4734 C   0  0  0  0  0  0
    2.9814   -4.9473    0.3444 C   0  0  0  0  0  0
   -2.1521    3.0486   -2.0358 H   0  0  0  0  0  0
   -3.6890    2.1905   -2.0108 H   0  0  0  0  0  0
   -3.6579    3.1344    1.7662 H   0  0  0  0  0  0
   -2.4419    4.1849    1.0324 H   0  0  0  0  0  0
   -3.0983    5.0954   -1.5023 H   0  0  0  0  0  0
   -5.3070    3.7754    0.1104 H   0  0  0  0  0  0
   -4.5069    5.3161    0.4336 H   0  0  0  0  0  0
   -0.7654    2.6222   -0.1126 H   0  0  0  0  0  0
   -1.4265    1.7897    1.2644 H   0  0  0  0  0  0
   -1.4170    0.7652   -1.5867 H   0  0  0  0  0  0
   -4.4691    4.4539   -3.1906 H   0  0  0  0  0  0
    2.2454   -0.6568    2.1483 H   0  0  0  0  0  0
    1.6037   -0.8368   -1.5968 H   0  0  0  0  0  0
    0.2456   -0.2168   -2.4646 H   0  0  0  0  0  0
    1.4079    0.9097   -1.7715 H   0  0  0  0  0  0
   -1.9845   -1.5303   -2.1509 H   0  0  0  0  0  0
   -2.8899    0.1263    1.7413 H   0  0  0  0  0  0
   -3.6402   -3.3291   -1.7562 H   0  0  0  0  0  0
   -4.5385   -1.6657    2.1136 H   0  0  0  0  0  0
   -4.9244   -3.4006    0.3736 H   0  0  0  0  0  0
    3.9954   -1.0503   -0.9601 H   0  0  0  0  0  0
    4.2230   -2.1756    1.8961 H   0  0  0  0  0  0
    2.4708    1.8659    1.8471 H   0  0  0  0  0  0
    0.5711   -2.6596   -0.3818 H   0  0  0  0  0  0
    5.6028    0.6163   -1.8079 H   0  0  0  0  0  0
    4.7603   -4.5598    1.5061 H   0  0  0  0  0  0
    4.0885    3.5286    0.9806 H   0  0  0  0  0  0
    1.1261   -5.0163   -0.7573 H   0  0  0  0  0  0
    5.6572    2.9111   -0.8492 H   0  0  0  0  0  0
    3.2169   -5.9878    0.1755 H   0  0  0  0  0  0
   -2.8715    2.4510   -0.0981 N   0  3  2  0  0  0
   -3.5337    1.7005    0.0428 H   0  0  0  0  0  0
  1  6  1  0  0  0
  1 41  1  0  0  0
  2 11  2  0  0  0
  3  9  1  0  0  0
  3 11  1  0  0  0
  3 13  1  0  0  0
  4  6  1  0  0  0
  4 31  1  0  0  0
  4 32  1  0  0  0
  4 61  1  0  0  0
  5  7  1  0  0  0
  5 33  1  0  0  0
  5 34  1  0  0  0
  5 61  1  0  0  0
  6  7  1  0  0  0
  6 35  1  0  0  0
  7 36  1  0  0  0
  7 37  1  0  0  0
  8  9  1  0  0  0
  8 38  1  0  0  0
  8 39  1  0  0  0
  8 61  1  0  0  0
  9 10  1  0  0  0
  9 40  1  0  0  0
 10 14  2  0  0  0
 10 15  1  0  0  0
 11 12  1  0  0  0
 12 16  1  0  0  0
 12 17  1  0  0  0
 12 42  1  0  0  0
 13 43  1  0  0  0
 13 44  1  0  0  0
 13 45  1  0  0  0
 14 18  1  0  0  0
 14 46  1  0  0  0
 15 19  2  0  0  0
 15 47  1  0  0  0
 16 21  2  0  0  0
 16 23  1  0  0  0
 17 22  2  0  0  0
 17 24  1  0  0  0
 18 20  2  0  0  0
 18 48  1  0  0  0
 19 20  1  0  0  0
 19 49  1  0  0  0
 20 50  1  0  0  0
 21 25  1  0  0  0
 21 51  1  0  0  0
 22 26  1  0  0  0
 22 52  1  0  0  0
 23 27  2  0  0  0
 23 53  1  0  0  0
 24 28  2  0  0  0
 24 54  1  0  0  0
 25 29  2  0  0  0
 25 55  1  0  0  0
 26 30  2  0  0  0
 26 56  1  0  0  0
 27 29  1  0  0  0
 27 57  1  0  0  0
 28 30  1  0  0  0
 28 58  1  0  0  0
 29 59  1  0  0  0
 30 60  1  0  0  0
 61 62  1  0  0  0
M  CHG  1  61   1
M  END
> <LID>
L001476

> <PC_CID>
179340

> <Names>
EMD 61753

> <CAS_Numbers>
153205-46-0

$$$$
44210944
                    3D
 Structure written by MMmdl.
 53 56  0  0  1  0            999 V2000
   -1.4435    1.5350   -0.3276 S   0  0  0  0  0  0
   -5.6775   -3.0637    1.3602 O   0  0  0  0  0  0
   -6.6157   -2.6045   -0.6760 O   0  0  0  0  0  0
    0.6379   -0.0560    0.3925 N   0  0  0  0  0  0
   -1.3303   -1.1181    0.1443 N   0  0  0  0  0  0
    2.3382    4.0112    0.0571 C   0  0  0  0  0  0
    3.4614    3.6572    2.1335 C   0  0  0  0  0  0
    2.7913    5.3680    0.6131 C   0  0  0  0  0  0
    3.8877    5.0273    1.6176 C   0  0  0  0  0  0
    1.9641    1.8619    1.2889 C   0  0  0  0  0  0
    1.6565    0.9669    0.0621 C   0  0  1  0  0  0
    2.8823    0.3624   -0.6288 C   0  0  0  0  0  0
    1.1342   -1.2077    1.1676 C   0  0  0  0  0  0
   -0.6974    0.0893    0.0947 C   0  0  0  0  0  0
    4.0816    0.0772    0.0668 C   0  0  0  0  0  0
    2.8035    0.0666   -2.0072 C   0  0  0  0  0  0
    5.1823   -0.4821   -0.6106 C   0  0  0  0  0  0
    3.9041   -0.4928   -2.6842 C   0  0  0  0  0  0
    5.0952   -0.7659   -1.9862 C   0  0  0  0  0  0
   -2.6874   -1.4298   -0.1328 C   0  0  0  0  0  0
   -3.4379   -2.0942    0.8660 C   0  0  0  0  0  0
   -3.2659   -1.1695   -1.4059 C   0  0  0  0  0  0
   -4.7666   -2.4401    0.5705 C   0  0  0  0  0  0
   -5.3320   -2.1643   -0.6574 C   0  0  0  0  0  0
   -4.6056   -1.5288   -1.6772 C   0  0  0  0  0  0
   -6.8458   -3.1710    0.5883 C   0  0  0  0  0  0
    1.2492    3.9702    0.0002 H   0  0  0  0  0  0
    2.7269    3.8474   -0.9486 H   0  0  0  0  0  0
    4.2888    3.0948    2.5674 H   0  0  0  0  0  0
    2.6935    3.7770    2.9000 H   0  0  0  0  0  0
    1.9590    5.8477    1.1301 H   0  0  0  0  0  0
    3.1336    6.0495   -0.1663 H   0  0  0  0  0  0
    4.8494    4.9512    1.1080 H   0  0  0  0  0  0
    3.9834    5.7695    2.4109 H   0  0  0  0  0  0
    2.3986    1.2647    2.0908 H   0  0  0  0  0  0
    1.0421    2.2794    1.6964 H   0  0  0  0  0  0
    1.2599    1.6256   -0.7087 H   0  0  0  0  0  0
    0.4600   -1.4569    1.9885 H   0  0  0  0  0  0
    1.2385   -2.0829    0.5250 H   0  0  0  0  0  0
    2.1066   -1.0106    1.6168 H   0  0  0  0  0  0
    4.1737    0.2745    1.1238 H   0  0  0  0  0  0
    1.8929    0.2686   -2.5526 H   0  0  0  0  0  0
    6.0942   -0.6973   -0.0731 H   0  0  0  0  0  0
    3.8338   -0.7138   -3.7391 H   0  0  0  0  0  0
   -0.7824   -1.8759    0.5248 H   0  0  0  0  0  0
    5.9395   -1.1961   -2.5047 H   0  0  0  0  0  0
   -3.0102   -2.3248    1.8307 H   0  0  0  0  0  0
   -2.6819   -0.6946   -2.1806 H   0  0  0  0  0  0
   -5.0544   -1.3277   -2.6387 H   0  0  0  0  0  0
   -7.6608   -2.6416    1.0831 H   0  0  0  0  0  0
   -7.1138   -4.2219    0.4747 H   0  0  0  0  0  0
    2.8915    2.9702    0.9576 N   0  3  0  0  0  0
    3.6761    2.5632    0.4676 H   0  0  0  0  0  0
  1 14  2  0  0  0
  2 23  1  0  0  0
  2 26  1  0  0  0
  3 24  1  0  0  0
  3 26  1  0  0  0
  4 11  1  0  0  0
  4 13  1  0  0  0
  4 14  1  0  0  0
  5 14  1  0  0  0
  5 20  1  0  0  0
  5 45  1  0  0  0
  6  8  1  0  0  0
  6 27  1  0  0  0
  6 28  1  0  0  0
  6 52  1  0  0  0
  7  9  1  0  0  0
  7 29  1  0  0  0
  7 30  1  0  0  0
  7 52  1  0  0  0
  8  9  1  0  0  0
  8 31  1  0  0  0
  8 32  1  0  0  0
  9 33  1  0  0  0
  9 34  1  0  0  0
 10 11  1  0  0  0
 10 35  1  0  0  0
 10 36  1  0  0  0
 10 52  1  0  0  0
 11 12  1  0  0  0
 11 37  1  0  0  0
 12 15  2  0  0  0
 12 16  1  0  0  0
 13 38  1  0  0  0
 13 39  1  0  0  0
 13 40  1  0  0  0
 15 17  1  0  0  0
 15 41  1  0  0  0
 16 18  2  0  0  0
 16 42  1  0  0  0
 17 19  2  0  0  0
 17 43  1  0  0  0
 18 19  1  0  0  0
 18 44  1  0  0  0
 19 46  1  0  0  0
 20 21  2  0  0  0
 20 22  1  0  0  0
 21 23  1  0  0  0
 21 47  1  0  0  0
 22 25  2  0  0  0
 22 48  1  0  0  0
 23 24  2  0  0  0
 24 25  1  0  0  0
 25 49  1  0  0  0
 26 50  1  0  0  0
 26 51  1  0  0  0
 52 53  1  0  0  0
M  CHG  1  52   1
M  END
> <LID>
L008590

> <PC_CID>
44210944

> <Names>


> <CAS_Numbers>


$$$$
44214498
                    3D
 Structure written by MMmdl.
 60 62  0  0  1  0            999 V2000
    4.3163   -1.7057    2.9299 Cl  0  0  0  0  0  0
   -4.7891    2.1747    0.1759 O   0  0  0  0  0  0
   -7.1838   -2.1882    0.4532 O   0  0  0  0  0  0
    0.8787   -0.1093   -1.7999 N   0  0  0  0  0  0
   -5.1114   -0.0397    0.5268 N   0  0  0  0  0  0
    4.1346   -2.4015    0.2987 C   0  0  0  0  0  0
    5.2697   -0.3093    0.0183 C   0  0  0  0  0  0
    5.1509   -2.2395    1.4450 C   0  0  1  0  0  0
    6.1150   -1.1468    0.9733 C   0  0  0  0  0  0
    3.3183   -0.8134   -1.5357 C   0  0  0  0  0  0
    1.9724   -0.4122   -0.8541 C   0  0  1  0  0  0
    2.1389    0.7017    0.1733 C   0  0  0  0  0  0
   -0.3770    0.1467   -1.3432 C   0  0  0  0  0  0
    1.2223    0.1737   -3.1957 C   0  0  0  0  0  0
    2.4883    2.0079   -0.2355 C   0  0  0  0  0  0
    1.9313    0.4359    1.5437 C   0  0  0  0  0  0
   -1.1208    1.2445   -1.8381 C   0  0  0  0  0  0
   -0.9650   -0.6641   -0.3435 C   0  0  0  0  0  0
    2.6421    3.0325    0.7182 C   0  0  0  0  0  0
    2.0864    1.4605    2.4970 C   0  0  0  0  0  0
    2.4434    2.7585    2.0848 C   0  0  0  0  0  0
   -2.4139    1.5192   -1.3537 C   0  0  0  0  0  0
   -2.2588   -0.3916    0.1411 C   0  0  0  0  0  0
   -3.0003    0.6980   -0.3676 C   0  0  0  0  0  0
   -4.3727    1.0162    0.1548 C   0  0  0  0  0  0
   -6.4804    0.0411    1.0177 C   0  0  0  0  0  0
   -6.9495   -1.3245    1.5470 C   0  0  1  0  0  0
   -8.2566   -1.2169    2.3431 C   0  0  0  0  0  0
    4.2652   -3.3561   -0.2116 H   0  0  0  0  0  0
    3.1189   -2.3816    0.6882 H   0  0  0  0  0  0
    4.6788    0.3992    0.5939 H   0  0  0  0  0  0
    5.8767    0.2537   -0.6912 H   0  0  0  0  0  0
    5.6673   -3.1710    1.6796 H   0  0  0  0  0  0
    6.9399   -1.6013    0.4227 H   0  0  0  0  0  0
    6.5441   -0.5648    1.7898 H   0  0  0  0  0  0
    3.7115    0.0123   -2.1301 H   0  0  0  0  0  0
    3.1233   -1.6295   -2.2319 H   0  0  0  0  0  0
    1.6349   -1.2941   -0.3163 H   0  0  0  0  0  0
    0.3337    0.3188   -3.8105 H   0  0  0  0  0  0
    1.8317    1.0747   -3.2684 H   0  0  0  0  0  0
    1.7656   -0.6535   -3.6504 H   0  0  0  0  0  0
    2.6407    2.2275   -1.2818 H   0  0  0  0  0  0
    1.6539   -0.5553    1.8710 H   0  0  0  0  0  0
   -0.7018    1.9051   -2.5826 H   0  0  0  0  0  0
   -0.4385   -1.5140    0.0627 H   0  0  0  0  0  0
    2.9112    4.0293    0.4011 H   0  0  0  0  0  0
    1.9303    1.2504    3.5449 H   0  0  0  0  0  0
    2.5611    3.5444    2.8163 H   0  0  0  0  0  0
   -2.9533    2.3691   -1.7469 H   0  0  0  0  0  0
   -2.6702   -1.0286    0.9107 H   0  0  0  0  0  0
   -4.7097   -0.9620    0.4406 H   0  0  0  0  0  0
   -6.5118    0.7734    1.8264 H   0  0  0  0  0  0
   -7.1422    0.4083    0.2315 H   0  0  0  0  0  0
   -6.1818   -1.7641    2.1854 H   0  0  0  0  0  0
   -9.0604   -0.7960    1.7378 H   0  0  0  0  0  0
   -8.5828   -2.1952    2.6979 H   0  0  0  0  0  0
   -8.1302   -0.5773    3.2170 H   0  0  0  0  0  0
   -7.8614   -1.8133   -0.0886 H   0  0  0  0  0  0
    4.4192   -1.3071   -0.6597 N   0  3  2  0  0  0
    5.0649   -1.7310   -1.3108 H   0  0  0  0  0  0
  1  8  1  0  0  0
  2 25  2  0  0  0
  3 27  1  0  0  0
  3 58  1  0  0  0
  4 11  1  0  0  0
  4 13  1  0  0  0
  4 14  1  0  0  0
  5 25  1  0  0  0
  5 26  1  0  0  0
  5 51  1  0  0  0
  6  8  1  0  0  0
  6 29  1  0  0  0
  6 30  1  0  0  0
  6 59  1  0  0  0
  7  9  1  0  0  0
  7 31  1  0  0  0
  7 32  1  0  0  0
  7 59  1  0  0  0
  8  9  1  0  0  0
  8 33  1  0  0  0
  9 34  1  0  0  0
  9 35  1  0  0  0
 10 11  1  0  0  0
 10 36  1  0  0  0
 10 37  1  0  0  0
 10 59  1  0  0  0
 11 12  1  0  0  0
 11 38  1  0  0  0
 12 15  2  0  0  0
 12 16  1  0  0  0
 13 17  2  0  0  0
 13 18  1  0  0  0
 14 39  1  0  0  0
 14 40  1  0  0  0
 14 41  1  0  0  0
 15 19  1  0  0  0
 15 42  1  0  0  0
 16 20  2  0  0  0
 16 43  1  0  0  0
 17 22  1  0  0  0
 17 44  1  0  0  0
 18 23  2  0  0  0
 18 45  1  0  0  0
 19 21  2  0  0  0
 19 46  1  0  0  0
 20 21  1  0  0  0
 20 47  1  0  0  0
 21 48  1  0  0  0
 22 24  2  0  0  0
 22 49  1  0  0  0
 23 24  1  0  0  0
 23 50  1  0  0  0
 24 25  1  0  0  0
 26 27  1  0  0  0
 26 52  1  0  0  0
 26 53  1  0  0  0
 27 28  1  0  0  0
 27 54  1  0  0  0
 28 55  1  0  0  0
 28 56  1  0  0  0
 28 57  1  0  0  0
 59 60  1  0  0  0
M  CHG  1  59   1
M  END
> <LID>
L017857

> <PC_CID>
44214498

> <Names>


> <CAS_Numbers>


$$$$
44209564
                    3D
 Structure written by MMmdl.
 54 56  0  0  1  0            999 V2000
    6.0942    1.2397    1.8359 Cl  0  0  0  0  0  0
    7.3389   -0.2933   -0.6682 Cl  0  0  0  0  0  0
    1.1247    1.1071   -0.7705 O   0  0  0  0  0  0
   -0.7888    0.2318    0.0762 N   0  0  0  0  0  0
   -3.6457   -0.3602   -0.3057 C   0  0  1  0  0  0
   -2.6804   -1.3944    0.3022 C   0  0  1  0  0  0
   -2.8718    0.5570   -1.2615 C   0  0  0  0  0  0
   -1.6482    1.2332   -0.6001 C   0  0  1  0  0  0
   -4.8274   -1.0570   -1.0071 C   0  0  0  0  0  0
   -1.4952   -0.6926    0.9895 C   0  0  0  0  0  0
   -3.4281   -2.3338    1.2687 C   0  0  0  0  0  0
   -5.5710   -1.9978   -0.0459 C   0  0  0  0  0  0
   -4.6131   -3.0255    0.5757 C   0  0  0  0  0  0
   -2.0126    2.3750    0.3816 C   0  0  0  0  0  0
    0.5621    0.2528   -0.0819 C   0  0  0  0  0  0
    1.4234   -0.8196    0.6158 C   0  0  0  0  0  0
   -3.5689    4.2489    0.7314 C   0  0  0  0  0  0
   -1.9491    4.3620   -1.1004 C   0  0  0  0  0  0
    2.9064   -0.6844    0.2997 C   0  0  0  0  0  0
    3.7353    0.1175    1.1125 C   0  0  0  0  0  0
    3.4614   -1.3622   -0.8059 C   0  0  0  0  0  0
    5.1081    0.2468    0.8225 C   0  0  0  0  0  0
    4.8331   -1.2351   -1.0974 C   0  0  0  0  0  0
    5.6594   -0.4321   -0.2867 C   0  0  0  0  0  0
   -4.0548    0.2494    0.5011 H   0  0  0  0  0  0
   -2.2778   -2.0054   -0.5080 H   0  0  0  0  0  0
   -2.5212   -0.0364   -2.1075 H   0  0  0  0  0  0
   -3.5410    1.3043   -1.6881 H   0  0  0  0  0  0
   -1.1030    1.6780   -1.4319 H   0  0  0  0  0  0
   -4.4666   -1.6264   -1.8648 H   0  0  0  0  0  0
   -5.5209   -0.3129   -1.4003 H   0  0  0  0  0  0
   -1.8497   -0.1236    1.8492 H   0  0  0  0  0  0
   -0.8554   -1.4656    1.4097 H   0  0  0  0  0  0
   -3.7900   -1.7684    2.1286 H   0  0  0  0  0  0
   -2.7452   -3.0881    1.6610 H   0  0  0  0  0  0
   -6.3750   -2.5107   -0.5745 H   0  0  0  0  0  0
   -6.0441   -1.4140    0.7447 H   0  0  0  0  0  0
   -5.1499   -3.6496    1.2907 H   0  0  0  0  0  0
   -4.2418   -3.6952   -0.2011 H   0  0  0  0  0  0
   -2.6004    1.9638    1.2023 H   0  0  0  0  0  0
   -1.1110    2.7870    0.8385 H   0  0  0  0  0  0
    1.2891   -0.7499    1.6960 H   0  0  0  0  0  0
    1.0911   -1.8117    0.3073 H   0  0  0  0  0  0
   -4.1673    5.0138    0.2352 H   0  0  0  0  0  0
   -4.2550    3.5996    1.2765 H   0  0  0  0  0  0
   -2.9156    4.7409    1.4534 H   0  0  0  0  0  0
   -2.5617    5.1369   -1.5627 H   0  0  0  0  0  0
   -1.1742    4.8521   -0.5094 H   0  0  0  0  0  0
   -1.4658    3.8125   -1.9072 H   0  0  0  0  0  0
    3.3174    0.6403    1.9605 H   0  0  0  0  0  0
    2.8363   -1.9783   -1.4358 H   0  0  0  0  0  0
    5.2516   -1.7552   -1.9465 H   0  0  0  0  0  0
   -2.7822    3.4752   -0.2549 N   0  3  0  0  0  0
   -3.4576    3.0368   -0.8652 H   0  0  0  0  0  0
  1 22  1  0  0  0
  2 24  1  0  0  0
  3 15  2  0  0  0
  4  8  1  0  0  0
  4 10  1  0  0  0
  4 15  1  0  0  0
  5  6  1  0  0  0
  5  7  1  0  0  0
  5  9  1  0  0  0
  5 25  1  0  0  0
  6 10  1  0  0  0
  6 11  1  0  0  0
  6 26  1  0  0  0
  7  8  1  0  0  0
  7 27  1  0  0  0
  7 28  1  0  0  0
  8 14  1  0  0  0
  8 29  1  0  0  0
  9 12  1  0  0  0
  9 30  1  0  0  0
  9 31  1  0  0  0
 10 32  1  0  0  0
 10 33  1  0  0  0
 11 13  1  0  0  0
 11 34  1  0  0  0
 11 35  1  0  0  0
 12 13  1  0  0  0
 12 36  1  0  0  0
 12 37  1  0  0  0
 13 38  1  0  0  0
 13 39  1  0  0  0
 14 40  1  0  0  0
 14 41  1  0  0  0
 14 53  1  0  0  0
 15 16  1  0  0  0
 16 19  1  0  0  0
 16 42  1  0  0  0
 16 43  1  0  0  0
 17 44  1  0  0  0
 17 45  1  0  0  0
 17 46  1  0  0  0
 17 53  1  0  0  0
 18 47  1  0  0  0
 18 48  1  0  0  0
 18 49  1  0  0  0
 18 53  1  0  0  0
 19 20  2  0  0  0
 19 21  1  0  0  0
 20 22  1  0  0  0
 20 50  1  0  0  0
 21 23  2  0  0  0
 21 51  1  0  0  0
 22 24  2  0  0  0
 23 24  1  0  0  0
 23 52  1  0  0  0
 53 54  1  0  0  0
M  CHG  1  53   1
M  END
> <LID>
L004245

> <PC_CID>
44209564

> <Names>


> <CAS_Numbers>


$$$$
44214916
                    3D
 Structure written by MMmdl.
 55 56  0  0  1  0            999 V2000
    7.0171   -1.2011    1.1520 Cl  0  0  0  0  0  0
    7.6015    1.9310    1.0158 Cl  0  0  0  0  0  0
    0.1195   -0.9319   -2.9519 O   0  0  0  0  0  0
    2.5138   -0.3384   -2.1217 O   0  0  0  0  0  0
    0.3940   -0.8898   -1.5633 N   0  0  0  0  0  0
   -0.8224   -0.9909   -0.7429 C   0  0  1  0  0  0
   -1.6828    0.2832   -0.9527 C   0  0  0  0  0  0
   -1.5319   -2.3394   -1.0684 C   0  0  0  0  0  0
   -2.0702    0.9925    0.3566 C   0  0  0  0  0  0
   -2.9207    2.2231    0.1080 C   0  0  0  0  0  0
   -2.2531   -2.8283    1.2745 C   0  0  0  0  0  0
    1.6435   -0.4798   -1.2592 C   0  0  0  0  0  0
   -3.9403   -2.1160   -0.4243 C   0  0  0  0  0  0
    1.9578   -0.1697    0.2147 C   0  0  0  0  0  0
   -4.3279    2.1384    0.1657 C   0  0  0  0  0  0
   -2.3068    3.4585   -0.1877 C   0  0  0  0  0  0
   -3.1558   -3.7704    2.0477 C   0  0  0  0  0  0
    3.3734    0.3500    0.4166 C   0  0  0  0  0  0
   -5.1155    3.2823   -0.0699 C   0  0  0  0  0  0
   -3.0950    4.6019   -0.4233 C   0  0  0  0  0  0
   -4.4993    4.5140   -0.3643 C   0  0  0  0  0  0
    4.4314   -0.5497    0.6657 C   0  0  0  0  0  0
    3.6358    1.7348    0.3590 C   0  0  0  0  0  0
   -2.7522   -4.9229    2.6033 C   0  0  0  0  0  0
    5.7440   -0.0723    0.8519 C   0  0  0  0  0  0
    4.9466    2.2142    0.5453 C   0  0  0  0  0  0
    6.0028    1.3149    0.7915 C   0  0  0  0  0  0
   -0.5082   -1.0296    0.2989 H   0  0  0  0  0  0
   -1.1411    1.0091   -1.5618 H   0  0  0  0  0  0
   -2.5732    0.0456   -1.5343 H   0  0  0  0  0  0
   -1.9057   -2.3380   -2.0933 H   0  0  0  0  0  0
   -0.7855   -3.1348   -1.0373 H   0  0  0  0  0  0
   -2.6052    0.3219    1.0263 H   0  0  0  0  0  0
   -1.1699    1.2946    0.8931 H   0  0  0  0  0  0
   -1.2254   -3.1847    1.3626 H   0  0  0  0  0  0
   -2.2881   -1.8406    1.7328 H   0  0  0  0  0  0
   -4.7519   -2.6826    0.0315 H   0  0  0  0  0  0
   -3.9847   -1.1049   -0.0271 H   0  0  0  0  0  0
   -4.1457   -2.0722   -1.4943 H   0  0  0  0  0  0
    1.2520    0.5733    0.5879 H   0  0  0  0  0  0
    1.8189   -1.0723    0.8110 H   0  0  0  0  0  0
   -4.8091    1.1980    0.3903 H   0  0  0  0  0  0
   -1.2301    3.5323   -0.2365 H   0  0  0  0  0  0
    0.9102   -0.5757   -3.3330 H   0  0  0  0  0  0
   -4.1901   -3.4764    2.1520 H   0  0  0  0  0  0
   -6.1925    3.2150   -0.0250 H   0  0  0  0  0  0
   -2.6223    5.5463   -0.6497 H   0  0  0  0  0  0
   -5.1036    5.3909   -0.5451 H   0  0  0  0  0  0
    4.2384   -1.6116    0.7101 H   0  0  0  0  0  0
    2.8338    2.4328    0.1680 H   0  0  0  0  0  0
   -3.4458   -5.5499    3.1446 H   0  0  0  0  0  0
   -1.7278   -5.2578    2.5276 H   0  0  0  0  0  0
    5.1416    3.2755    0.4981 H   0  0  0  0  0  0
   -2.6332   -2.7651   -0.1596 N   0  3  1  0  0  0
   -2.7848   -3.7296   -0.4200 H   0  0  0  0  0  0
  1 25  1  0  0  0
  2 27  1  0  0  0
  3  5  1  0  0  0
  3 44  1  0  0  0
  4 12  2  0  0  0
  5  6  1  0  0  0
  5 12  1  0  0  0
  6  7  1  0  0  0
  6  8  1  0  0  0
  6 28  1  0  0  0
  7  9  1  0  0  0
  7 29  1  0  0  0
  7 30  1  0  0  0
  8 31  1  0  0  0
  8 32  1  0  0  0
  8 54  1  0  0  0
  9 10  1  0  0  0
  9 33  1  0  0  0
  9 34  1  0  0  0
 10 15  2  0  0  0
 10 16  1  0  0  0
 11 17  1  0  0  0
 11 35  1  0  0  0
 11 36  1  0  0  0
 11 54  1  0  0  0
 12 14  1  0  0  0
 13 37  1  0  0  0
 13 38  1  0  0  0
 13 39  1  0  0  0
 13 54  1  0  0  0
 14 18  1  0  0  0
 14 40  1  0  0  0
 14 41  1  0  0  0
 15 19  1  0  0  0
 15 42  1  0  0  0
 16 20  2  0  0  0
 16 43  1  0  0  0
 17 24  2  0  0  0
 17 45  1  0  0  0
 18 22  2  0  0  0
 18 23  1  0  0  0
 19 21  2  0  0  0
 19 46  1  0  0  0
 20 21  1  0  0  0
 20 47  1  0  0  0
 21 48  1  0  0  0
 22 25  1  0  0  0
 22 49  1  0  0  0
 23 26  2  0  0  0
 23 50  1  0  0  0
 24 51  1  0  0  0
 24 52  1  0  0  0
 25 27  2  0  0  0
 26 27  1  0  0  0
 26 53  1  0  0  0
 54 55  1  0  0  0
M  CHG  1  54   1
M  END
> <LID>
L019024

> <PC_CID>
44214916

> <Names>


> <CAS_Numbers>


$$$$
44209562
                    3D
 Structure written by MMmdl.
 54 56  0  0  1  0            999 V2000
   -6.0059    0.5129   -1.5923 Cl  0  0  0  0  0  0
   -6.9403    1.4884    1.2965 Cl  0  0  0  0  0  0
   -0.6839    0.9671    0.2276 O   0  0  0  0  0  0
    0.8035   -0.7261   -0.1159 N   0  0  0  0  0  0
    2.8315    0.2784    0.8114 C   0  0  2  0  0  0
    3.2385   -1.0982    1.4178 C   0  0  1  0  0  0
    1.9928    0.0850   -0.4945 C   0  0  2  0  0  0
    4.0822    1.1833    0.7097 C   0  0  0  0  0  0
    2.0339   -2.0575    1.5225 C   0  0  0  0  0  0
    4.4151   -1.7485    0.6526 C   0  0  0  0  0  0
    5.2276    0.5316   -0.0811 C   0  0  0  0  0  0
    1.2097   -2.1000    0.2235 C   0  0  0  0  0  0
    5.6241   -0.8083    0.5503 C   0  0  0  0  0  0
    1.6568    1.3833   -1.2908 C   0  0  0  0  0  0
   -0.4263   -0.2369    0.2136 C   0  0  0  0  0  0
   -1.5533   -1.2275    0.5733 C   0  0  0  0  0  0
    3.0589    1.2203   -3.3290 C   0  0  0  0  0  0
    2.6830    3.3961   -2.2748 C   0  0  0  0  0  0
   -2.9046   -0.5486    0.7485 C   0  0  0  0  0  0
   -3.7483   -0.3492   -0.3647 C   0  0  0  0  0  0
   -3.3226   -0.1171    2.0249 C   0  0  0  0  0  0
   -4.9990    0.2806   -0.2076 C   0  0  0  0  0  0
   -4.5722    0.5118    2.1845 C   0  0  0  0  0  0
   -5.4127    0.7129    1.0718 C   0  0  0  0  0  0
    2.1709    0.7666    1.5303 H   0  0  0  0  0  0
    3.5926   -0.9191    2.4343 H   0  0  0  0  0  0
    2.5737   -0.5329   -1.1765 H   0  0  0  0  0  0
    4.4414    1.3851    1.7200 H   0  0  0  0  0  0
    3.8358    2.1642    0.3081 H   0  0  0  0  0  0
    1.3878   -1.7283    2.3377 H   0  0  0  0  0  0
    2.3668   -3.0604    1.7917 H   0  0  0  0  0  0
    4.1066   -2.0431   -0.3501 H   0  0  0  0  0  0
    4.7186   -2.6678    1.1547 H   0  0  0  0  0  0
    6.0900    1.1986   -0.1012 H   0  0  0  0  0  0
    4.9356    0.3737   -1.1188 H   0  0  0  0  0  0
    1.8053   -2.5193   -0.5880 H   0  0  0  0  0  0
    0.3853   -2.8014    0.3349 H   0  0  0  0  0  0
    6.4133   -1.2788   -0.0370 H   0  0  0  0  0  0
    6.0393   -0.6367    1.5442 H   0  0  0  0  0  0
    0.8315    1.2151   -1.9849 H   0  0  0  0  0  0
    1.3230    2.1447   -0.5849 H   0  0  0  0  0  0
   -1.6452   -1.9788   -0.2121 H   0  0  0  0  0  0
   -1.2995   -1.7487    1.4973 H   0  0  0  0  0  0
    3.9414    1.6258   -3.8251 H   0  0  0  0  0  0
    3.2408    0.1587   -3.1664 H   0  0  0  0  0  0
    2.2130    1.3191   -4.0107 H   0  0  0  0  0  0
    3.5609    3.7836   -2.7930 H   0  0  0  0  0  0
    1.8013    3.6310   -2.8726 H   0  0  0  0  0  0
    2.6042    3.9260   -1.3248 H   0  0  0  0  0  0
   -3.4348   -0.6764   -1.3453 H   0  0  0  0  0  0
   -2.6846   -0.2636    2.8843 H   0  0  0  0  0  0
   -4.8857    0.8416    3.1641 H   0  0  0  0  0  0
    2.8035    1.9369   -2.0575 N   0  3  0  0  0  0
    3.6208    1.8088   -1.4772 H   0  0  0  0  0  0
  1 22  1  0  0  0
  2 24  1  0  0  0
  3 15  2  0  0  0
  4  7  1  0  0  0
  4 12  1  0  0  0
  4 15  1  0  0  0
  5  6  1  0  0  0
  5  7  1  0  0  0
  5  8  1  0  0  0
  5 25  1  0  0  0
  6  9  1  0  0  0
  6 10  1  0  0  0
  6 26  1  0  0  0
  7 14  1  0  0  0
  7 27  1  0  0  0
  8 11  1  0  0  0
  8 28  1  0  0  0
  8 29  1  0  0  0
  9 12  1  0  0  0
  9 30  1  0  0  0
  9 31  1  0  0  0
 10 13  1  0  0  0
 10 32  1  0  0  0
 10 33  1  0  0  0
 11 13  1  0  0  0
 11 34  1  0  0  0
 11 35  1  0  0  0
 12 36  1  0  0  0
 12 37  1  0  0  0
 13 38  1  0  0  0
 13 39  1  0  0  0
 14 40  1  0  0  0
 14 41  1  0  0  0
 14 53  1  0  0  0
 15 16  1  0  0  0
 16 19  1  0  0  0
 16 42  1  0  0  0
 16 43  1  0  0  0
 17 44  1  0  0  0
 17 45  1  0  0  0
 17 46  1  0  0  0
 17 53  1  0  0  0
 18 47  1  0  0  0
 18 48  1  0  0  0
 18 49  1  0  0  0
 18 53  1  0  0  0
 19 20  2  0  0  0
 19 21  1  0  0  0
 20 22  1  0  0  0
 20 50  1  0  0  0
 21 23  2  0  0  0
 21 51  1  0  0  0
 22 24  2  0  0  0
 23 24  1  0  0  0
 23 52  1  0  0  0
 53 54  1  0  0  0
M  CHG  1  53   1
M  END
> <LID>
L004242

> <PC_CID>
44209562

> <Names>


> <CAS_Numbers>


$$$$
44209563
                    3D
 Structure written by MMmdl.
 58 61  0  0  1  0            999 V2000
    4.4776    3.6975    2.8835 Cl  0  0  0  0  0  0
    6.7811    2.0893    1.3743 Cl  0  0  0  0  0  0
    0.7474    0.1301    0.7444 O   0  0  0  0  0  0
   -0.9706    0.5425   -0.6829 N   0  0  0  0  0  0
   -3.3054   -0.4845   -0.2790 C   0  0  1  0  0  0
   -3.8015    0.8679   -0.8147 C   0  0  2  0  0  0
   -1.7497   -0.6116   -0.1543 C   0  0  1  0  0  0
   -4.0680   -0.8647    1.0115 C   0  0  0  0  0  0
   -3.0048    1.1880   -2.0770 C   0  0  0  0  0  0
   -3.7677    1.9848    0.2532 C   0  0  0  0  0  0
   -1.5085    1.3633   -1.7902 C   0  0  0  0  0  0
   -4.0144    0.2454    2.0750 C   0  0  0  0  0  0
   -1.2264   -1.9110   -0.8197 C   0  0  0  0  0  0
   -4.5426    1.5734    1.5132 C   0  0  0  0  0  0
   -1.2023   -3.4612    1.1364 C   0  0  0  0  0  0
   -1.6534   -4.3586   -1.0263 C   0  0  0  0  0  0
    0.2611    0.8074   -0.1649 C   0  0  0  0  0  0
   -1.4551   -4.9537    1.3159 C   0  0  0  0  0  0
   -1.2467   -5.5059   -0.0907 C   0  0  0  0  0  0
    1.0840    1.9830   -0.7348 C   0  0  0  0  0  0
    2.5095    2.0145   -0.2017 C   0  0  0  0  0  0
    2.8174    2.7545    0.9595 C   0  0  0  0  0  0
    3.5318    1.3060   -0.8672 C   0  0  0  0  0  0
    4.1353    2.7846    1.4571 C   0  0  0  0  0  0
    4.8497    1.3351   -0.3723 C   0  0  0  0  0  0
    5.1556    2.0722    0.7888 C   0  0  0  0  0  0
   -3.6191   -1.2147   -1.0268 H   0  0  0  0  0  0
   -4.8446    0.7441   -1.1108 H   0  0  0  0  0  0
   -1.5416   -0.6752    0.9143 H   0  0  0  0  0  0
   -3.6928   -1.7987    1.4267 H   0  0  0  0  0  0
   -5.1130   -1.0532    0.7611 H   0  0  0  0  0  0
   -3.3985    2.0826   -2.5610 H   0  0  0  0  0  0
   -3.1376    0.3783   -2.7961 H   0  0  0  0  0  0
   -4.1919    2.9022   -0.1559 H   0  0  0  0  0  0
   -2.7425    2.2233    0.5357 H   0  0  0  0  0  0
   -0.9414    1.1705   -2.7019 H   0  0  0  0  0  0
   -1.3660    2.4182   -1.5528 H   0  0  0  0  0  0
   -2.9917    0.3778    2.4292 H   0  0  0  0  0  0
   -4.6038   -0.0474    2.9444 H   0  0  0  0  0  0
   -1.5071   -1.8974   -1.8743 H   0  0  0  0  0  0
   -0.1367   -1.9610   -0.8021 H   0  0  0  0  0  0
   -5.6028    1.4757    1.2763 H   0  0  0  0  0  0
   -4.4655    2.3552    2.2695 H   0  0  0  0  0  0
   -1.6486   -2.8661    1.9330 H   0  0  0  0  0  0
   -0.1275   -3.2708    1.1392 H   0  0  0  0  0  0
   -0.9136   -4.2405   -1.8198 H   0  0  0  0  0  0
   -2.6161   -4.5553   -1.4992 H   0  0  0  0  0  0
   -2.4854   -5.1211    1.6333 H   0  0  0  0  0  0
   -0.7955   -5.4107    2.0544 H   0  0  0  0  0  0
   -0.1917   -5.7417   -0.2379 H   0  0  0  0  0  0
   -1.8172   -6.4177   -0.2704 H   0  0  0  0  0  0
    1.1272    1.9209   -1.8226 H   0  0  0  0  0  0
    0.5936    2.9240   -0.4834 H   0  0  0  0  0  0
    2.0396    3.2987    1.4752 H   0  0  0  0  0  0
    3.3077    0.7358   -1.7569 H   0  0  0  0  0  0
    5.6278    0.7893   -0.8853 H   0  0  0  0  0  0
   -1.7690   -3.1393   -0.1911 N   0  3  0  0  0  0
   -2.7595   -2.9954   -0.0544 H   0  0  0  0  0  0
  1 24  1  0  0  0
  2 26  1  0  0  0
  3 17  2  0  0  0
  4  7  1  0  0  0
  4 11  1  0  0  0
  4 17  1  0  0  0
  5  6  1  0  0  0
  5  7  1  0  0  0
  5  8  1  0  0  0
  5 27  1  0  0  0
  6  9  1  0  0  0
  6 10  1  0  0  0
  6 28  1  0  0  0
  7 13  1  0  0  0
  7 29  1  0  0  0
  8 12  1  0  0  0
  8 30  1  0  0  0
  8 31  1  0  0  0
  9 11  1  0  0  0
  9 32  1  0  0  0
  9 33  1  0  0  0
 10 14  1  0  0  0
 10 34  1  0  0  0
 10 35  1  0  0  0
 11 36  1  0  0  0
 11 37  1  0  0  0
 12 14  1  0  0  0
 12 38  1  0  0  0
 12 39  1  0  0  0
 13 40  1  0  0  0
 13 41  1  0  0  0
 13 57  1  0  0  0
 14 42  1  0  0  0
 14 43  1  0  0  0
 15 18  1  0  0  0
 15 44  1  0  0  0
 15 45  1  0  0  0
 15 57  1  0  0  0
 16 19  1  0  0  0
 16 46  1  0  0  0
 16 47  1  0  0  0
 16 57  1  0  0  0
 17 20  1  0  0  0
 18 19  1  0  0  0
 18 48  1  0  0  0
 18 49  1  0  0  0
 19 50  1  0  0  0
 19 51  1  0  0  0
 20 21  1  0  0  0
 20 52  1  0  0  0
 20 53  1  0  0  0
 21 22  2  0  0  0
 21 23  1  0  0  0
 22 24  1  0  0  0
 22 54  1  0  0  0
 23 25  2  0  0  0
 23 55  1  0  0  0
 24 26  2  0  0  0
 25 26  1  0  0  0
 25 56  1  0  0  0
 57 58  1  0  0  0
M  CHG  1  57   1
M  END
> <LID>
L004244

> <PC_CID>
44209563

> <Names>


> <CAS_Numbers>


$$$$
19826216
                    3D
 Structure written by MMmdl.
 54 56  0  0  1  0            999 V2000
   -7.5930   -1.0082    0.8176 F   0  0  0  0  0  0
   -7.1361    0.6457   -0.5066 F   0  0  0  0  0  0
   -6.8937   -1.3867   -1.1987 F   0  0  0  0  0  0
   -0.5984    0.0799   -0.2778 O   0  0  0  0  0  0
    1.0076    0.2455    1.3190 N   0  0  0  0  0  0
    3.1865    3.5217   -0.8763 C   0  0  0  0  0  0
    5.0642    2.1345   -0.2765 C   0  0  0  0  0  0
    4.1143    3.3707   -2.0872 C   0  0  0  0  0  0
    5.4603    2.9831   -1.4822 C   0  0  0  0  0  0
    2.9337    1.9005    1.0902 C   0  0  0  0  0  0
    1.9791    0.8795    0.3894 C   0  0  1  0  0  0
    2.6953   -0.1638   -0.4655 C   0  0  0  0  0  0
   -0.2457   -0.0701    0.8944 C   0  0  0  0  0  0
    1.4377   -0.0363    2.6984 C   0  0  0  0  0  0
    3.4480   -1.2036    0.1261 C   0  0  0  0  0  0
    2.6068   -0.0934   -1.8736 C   0  0  0  0  0  0
   -1.2655   -0.6216    1.9128 C   0  0  0  0  0  0
    4.1083   -2.1513   -0.6793 C   0  0  0  0  0  0
    3.2678   -1.0407   -2.6785 C   0  0  0  0  0  0
   -2.6909   -0.6118    1.3789 C   0  0  0  0  0  0
    4.0198   -2.0698   -2.0817 C   0  0  0  0  0  0
   -3.4969    0.5361    1.5287 C   0  0  0  0  0  0
   -3.2176   -1.7522    0.7372 C   0  0  0  0  0  0
   -4.8159    0.5451    1.0351 C   0  0  0  0  0  0
   -4.5366   -1.7421    0.2439 C   0  0  0  0  0  0
   -5.3428   -0.5915    0.3843 C   0  0  0  0  0  0
   -6.7709   -0.5837   -0.1411 C   0  0  0  0  0  0
    3.1492    4.5648   -0.5605 H   0  0  0  0  0  0
    2.1681    3.2350   -1.1271 H   0  0  0  0  0  0
    4.9173    1.1078   -0.6001 H   0  0  0  0  0  0
    5.8346    2.1269    0.4950 H   0  0  0  0  0  0
    3.5996    1.4022    1.7933 H   0  0  0  0  0  0
    2.3276    2.5880    1.6815 H   0  0  0  0  0  0
    3.7568    2.5627   -2.7267 H   0  0  0  0  0  0
    4.1675    4.2751   -2.6941 H   0  0  0  0  0  0
    5.9901    3.8776   -1.1517 H   0  0  0  0  0  0
    6.1033    2.4495   -2.1830 H   0  0  0  0  0  0
    1.3824    1.4789   -0.2947 H   0  0  0  0  0  0
    1.0449   -0.9835    3.0684 H   0  0  0  0  0  0
    2.5158   -0.1255    2.8037 H   0  0  0  0  0  0
    1.1015    0.7564    3.3676 H   0  0  0  0  0  0
    3.5335   -1.2816    1.1984 H   0  0  0  0  0  0
    2.0309    0.6891   -2.3458 H   0  0  0  0  0  0
   -0.9924   -1.6433    2.1792 H   0  0  0  0  0  0
   -1.2401   -0.0307    2.8292 H   0  0  0  0  0  0
    4.6841   -2.9417   -0.2206 H   0  0  0  0  0  0
    3.1962   -0.9788   -3.7545 H   0  0  0  0  0  0
    4.5263   -2.7973   -2.6989 H   0  0  0  0  0  0
   -3.1052    1.4140    2.0213 H   0  0  0  0  0  0
   -2.6103   -2.6377    0.6187 H   0  0  0  0  0  0
   -5.4228    1.4298    1.1599 H   0  0  0  0  0  0
   -4.9275   -2.6235   -0.2426 H   0  0  0  0  0  0
    3.8093    2.7416    0.2220 N   0  3  0  0  0  0
    4.1450    3.4590    0.8490 H   0  0  0  0  0  0
  1 27  1  0  0  0
  2 27  1  0  0  0
  3 27  1  0  0  0
  4 13  2  0  0  0
  5 11  1  0  0  0
  5 13  1  0  0  0
  5 14  1  0  0  0
  6  8  1  0  0  0
  6 28  1  0  0  0
  6 29  1  0  0  0
  6 53  1  0  0  0
  7  9  1  0  0  0
  7 30  1  0  0  0
  7 31  1  0  0  0
  7 53  1  0  0  0
  8  9  1  0  0  0
  8 34  1  0  0  0
  8 35  1  0  0  0
  9 36  1  0  0  0
  9 37  1  0  0  0
 10 11  1  0  0  0
 10 32  1  0  0  0
 10 33  1  0  0  0
 10 53  1  0  0  0
 11 12  1  0  0  0
 11 38  1  0  0  0
 12 15  2  0  0  0
 12 16  1  0  0  0
 13 17  1  0  0  0
 14 39  1  0  0  0
 14 40  1  0  0  0
 14 41  1  0  0  0
 15 18  1  0  0  0
 15 42  1  0  0  0
 16 19  2  0  0  0
 16 43  1  0  0  0
 17 20  1  0  0  0
 17 44  1  0  0  0
 17 45  1  0  0  0
 18 21  2  0  0  0
 18 46  1  0  0  0
 19 21  1  0  0  0
 19 47  1  0  0  0
 20 22  2  0  0  0
 20 23  1  0  0  0
 21 48  1  0  0  0
 22 24  1  0  0  0
 22 49  1  0  0  0
 23 25  2  0  0  0
 23 50  1  0  0  0
 24 26  2  0  0  0
 24 51  1  0  0  0
 25 26  1  0  0  0
 25 52  1  0  0  0
 26 27  1  0  0  0
 53 54  1  0  0  0
M  CHG  1  53   1
M  END
> <LID>
L001967

> <PC_CID>
19826216

> <Names>


> <CAS_Numbers>


$$$$
19919538
                    3D
 Structure written by MMmdl.
 54 57  0  0  1  0            999 V2000
    0.7820   -4.4023    0.4432 Cl  0  0  0  0  0  0
    3.7524   -4.0887    1.5678 Cl  0  0  0  0  0  0
   -1.2741    1.3063   -2.1531 O   0  0  0  0  0  0
   -2.1607   -3.7861   -1.9905 O   0  5  0  0  0  0
   -3.2085   -5.0428   -0.5780 O   0  0  0  0  0  0
   -0.3886    1.0372   -0.0803 N   0  0  0  0  0  0
   -2.8418   -3.9442   -0.9822 N   0  3  0  0  0  0
    2.0402    1.8592   -0.0870 C   0  0  1  0  0  0
    0.9863    0.8139   -0.5811 C   0  0  1  0  0  0
    3.3203    1.0518    0.2702 C   0  0  0  0  0  0
    3.3227    3.9537   -0.5792 C   0  0  0  0  0  0
    1.1053    3.7507   -1.4373 C   0  0  0  0  0  0
    1.5433   -0.5038   -0.0967 C   0  0  0  0  0  0
    2.8348   -0.3660    0.3926 C   0  0  0  0  0  0
    2.7725    5.3547   -0.8738 C   0  0  0  0  0  0
    1.6349    5.1168   -1.8584 C   0  0  0  0  0  0
    0.8939   -1.7517   -0.0935 C   0  0  0  0  0  0
    3.5387   -1.4666    0.9116 C   0  0  0  0  0  0
   -0.5816    0.9727    1.3769 C   0  0  0  0  0  0
   -1.4311    1.1684   -0.9397 C   0  0  0  0  0  0
    1.5801   -2.8700    0.4271 C   0  0  0  0  0  0
    2.9007   -2.7281    0.9289 C   0  0  0  0  0  0
   -2.8776    1.0951   -0.4153 C   0  0  0  0  0  0
   -3.2550   -0.3031    0.0680 C   0  0  0  0  0  0
   -2.9298   -1.4529   -0.6880 C   0  0  0  0  0  0
   -3.9315   -0.4543    1.2959 C   0  0  0  0  0  0
   -3.2329   -2.7488   -0.2095 C   0  0  0  0  0  0
   -4.2576   -1.7372    1.7722 C   0  0  0  0  0  0
   -3.9053   -2.8785    1.0275 C   0  0  0  0  0  0
    1.6902    2.3054    0.8440 H   0  0  0  0  0  0
    1.0331    0.7533   -1.6697 H   0  0  0  0  0  0
    4.0637    1.0937   -0.5269 H   0  0  0  0  0  0
    3.7831    1.3966    1.1955 H   0  0  0  0  0  0
    3.5509    3.8555    0.4832 H   0  0  0  0  0  0
    4.2455    3.7733   -1.1316 H   0  0  0  0  0  0
    0.5590    3.2595   -2.2421 H   0  0  0  0  0  0
    0.4308    3.8665   -0.5871 H   0  0  0  0  0  0
    2.3752    5.7928    0.0429 H   0  0  0  0  0  0
    3.5319    6.0333   -1.2636 H   0  0  0  0  0  0
    2.0259    5.0685   -2.8758 H   0  0  0  0  0  0
    0.8731    5.8965   -1.8254 H   0  0  0  0  0  0
   -0.1105   -1.8532   -0.4762 H   0  0  0  0  0  0
    4.5444   -1.3510    1.2887 H   0  0  0  0  0  0
   -1.1240    0.0714    1.6597 H   0  0  0  0  0  0
    0.3568    0.9400    1.9292 H   0  0  0  0  0  0
   -1.1334    1.8404    1.7395 H   0  0  0  0  0  0
   -3.0239    1.8320    0.3747 H   0  0  0  0  0  0
   -3.5640    1.3724   -1.2164 H   0  0  0  0  0  0
   -2.4232   -1.3381   -1.6353 H   0  0  0  0  0  0
   -4.1951    0.4132    1.8834 H   0  0  0  0  0  0
   -4.7712   -1.8472    2.7161 H   0  0  0  0  0  0
   -4.1535   -3.8543    1.4189 H   0  0  0  0  0  0
    2.2996    2.9771   -1.0331 N   0  3  0  0  0  0
    2.6648    2.5687   -1.8820 H   0  0  0  0  0  0
  1 21  1  0  0  0
  2 22  1  0  0  0
  3 20  2  0  0  0
  4  7  1  0  0  0
  5  7  2  0  0  0
  6  9  1  0  0  0
  6 19  1  0  0  0
  6 20  1  0  0  0
  7 27  1  0  0  0
  8  9  1  0  0  0
  8 10  1  0  0  0
  8 30  1  0  0  0
  8 53  1  0  0  0
  9 13  1  0  0  0
  9 31  1  0  0  0
 10 14  1  0  0  0
 10 32  1  0  0  0
 10 33  1  0  0  0
 11 15  1  0  0  0
 11 34  1  0  0  0
 11 35  1  0  0  0
 11 53  1  0  0  0
 12 16  1  0  0  0
 12 36  1  0  0  0
 12 37  1  0  0  0
 12 53  1  0  0  0
 13 14  1  0  0  0
 13 17  2  0  0  0
 14 18  2  0  0  0
 15 16  1  0  0  0
 15 38  1  0  0  0
 15 39  1  0  0  0
 16 40  1  0  0  0
 16 41  1  0  0  0
 17 21  1  0  0  0
 17 42  1  0  0  0
 18 22  1  0  0  0
 18 43  1  0  0  0
 19 44  1  0  0  0
 19 45  1  0  0  0
 19 46  1  0  0  0
 20 23  1  0  0  0
 21 22  2  0  0  0
 23 24  1  0  0  0
 23 47  1  0  0  0
 23 48  1  0  0  0
 24 25  2  0  0  0
 24 26  1  0  0  0
 25 27  1  0  0  0
 25 49  1  0  0  0
 26 28  2  0  0  0
 26 50  1  0  0  0
 27 29  2  0  0  0
 28 29  1  0  0  0
 28 51  1  0  0  0
 29 52  1  0  0  0
 53 54  1  0  0  0
M  CHG  3   4  -1   7   1  53   1
M  END
> <LID>
L004287

> <PC_CID>
19919538

> <Names>


> <CAS_Numbers>


$$$$
10030466
                    3D
 Structure written by MMmdl.
 80 84  0  0  1  0            999 V2000
    2.5280    1.8822   -0.0775 O   0  0  0  0  0  0
    6.5367    4.2986    0.5142 O   0  0  0  0  0  0
    7.9392    2.9495    1.7276 O   0  0  0  0  0  0
    3.4416   -1.5510   -0.0558 N   0  0  0  0  0  0
    4.3896    0.5748   -0.1580 N   0  0  0  0  0  0
   -4.3046    3.0347   -0.9120 N   0  0  0  0  0  0
    2.3435   -0.5613   -0.0199 C   0  0  0  0  0  0
    1.5363   -0.6319    1.3099 C   0  0  0  0  0  0
    1.3991   -0.6902   -1.2513 C   0  0  0  0  0  0
    0.2490    0.2161    1.3031 C   0  0  0  0  0  0
    0.1184    0.1614   -1.1468 C   0  0  0  0  0  0
    3.0791    0.7815   -0.0897 C   0  0  0  0  0  0
    4.7198   -0.8335   -0.1430 C   0  0  0  0  0  0
   -1.9234    0.5808    0.1996 C   0  0  0  0  0  0
    3.3853   -2.9200   -0.0203 C   0  0  0  0  0  0
    5.4321    1.5944   -0.2114 C   0  0  0  0  0  0
   -2.9959   -0.1159   -0.6705 C   0  0  0  0  0  0
   -4.4422    0.4324   -0.5053 C   0  0  0  0  0  0
    5.7310    2.1516    1.1909 C   0  0  0  0  0  0
    4.5822   -3.6849   -0.0648 C   0  0  0  0  0  0
    2.1639   -3.6397    0.0609 C   0  0  0  0  0  0
   -5.3422   -0.2463   -1.5510 C   0  0  0  0  0  0
   -5.0447    0.2027    0.8949 C   0  0  0  0  0  0
    4.5605   -5.0924   -0.0302 C   0  0  0  0  0  0
    2.1389   -5.0473    0.0957 C   0  0  0  0  0  0
    6.8630    3.1756    1.1745 C   0  0  0  0  0  0
   -4.3677    1.8922   -0.7346 C   0  0  0  0  0  0
    3.3375   -5.7775    0.0502 C   0  0  0  0  0  0
   -5.6539   -1.6207   -1.4194 C   0  0  0  0  0  0
   -6.1536    0.9813    1.3053 C   0  0  0  0  0  0
   -5.8636    0.4602   -2.6630 C   0  0  0  0  0  0
   -4.5579   -0.7914    1.7809 C   0  0  0  0  0  0
   -6.4706   -2.2706   -2.3642 C   0  0  0  0  0  0
   -6.7435    0.7926    2.5696 C   0  0  0  0  0  0
   -6.6805   -0.1899   -3.6084 C   0  0  0  0  0  0
   -5.1473   -0.9803    3.0458 C   0  0  0  0  0  0
   -6.9859   -1.5549   -3.4597 C   0  0  0  0  0  0
   -6.2383   -0.1868    3.4431 C   0  0  0  0  0  0
    7.4833    5.3488    0.4079 C   0  0  0  0  0  0
    6.8752    6.4977   -0.4001 C   0  0  0  0  0  0
    2.1653   -0.3129    2.1428 H   0  0  0  0  0  0
    1.2578   -1.6512    1.5608 H   0  0  0  0  0  0
    1.0972   -1.7190   -1.4242 H   0  0  0  0  0  0
    1.9353   -0.4118   -2.1603 H   0  0  0  0  0  0
   -0.3030    0.0094    2.2209 H   0  0  0  0  0  0
    0.4754    1.2824    1.3202 H   0  0  0  0  0  0
    0.3437    1.2245   -1.2333 H   0  0  0  0  0  0
   -0.5184   -0.0800   -1.9968 H   0  0  0  0  0  0
    5.2539   -1.0964   -1.0576 H   0  0  0  0  0  0
    5.3529   -1.0533    0.7183 H   0  0  0  0  0  0
   -2.2605    0.5824    1.2357 H   0  0  0  0  0  0
   -1.8075    1.6291   -0.0790 H   0  0  0  0  0  0
    6.3349    1.1604   -0.6439 H   0  0  0  0  0  0
    5.1215    2.3945   -0.8858 H   0  0  0  0  0  0
   -2.7193    0.0123   -1.7172 H   0  0  0  0  0  0
   -2.9703   -1.1928   -0.5043 H   0  0  0  0  0  0
    4.8405    2.6226    1.6081 H   0  0  0  0  0  0
    6.0044    1.3392    1.8649 H   0  0  0  0  0  0
    5.5517   -3.2154   -0.1268 H   0  0  0  0  0  0
    1.2088   -3.1465    0.0993 H   0  0  0  0  0  0
    5.4869   -5.6466   -0.0656 H   0  0  0  0  0  0
    1.1946   -5.5679    0.1576 H   0  0  0  0  0  0
    3.3189   -6.8572    0.0768 H   0  0  0  0  0  0
   -5.2665   -2.1894   -0.5873 H   0  0  0  0  0  0
   -6.5673    1.7310    0.6467 H   0  0  0  0  0  0
   -5.6498    1.5069   -2.8162 H   0  0  0  0  0  0
   -3.7317   -1.4296    1.5117 H   0  0  0  0  0  0
   -6.7013   -3.3194   -2.2481 H   0  0  0  0  0  0
   -7.5871    1.3979    2.8673 H   0  0  0  0  0  0
   -7.0730    0.3608   -4.4506 H   0  0  0  0  0  0
   -4.7637   -1.7394    3.7116 H   0  0  0  0  0  0
   -7.6126   -2.0521   -4.1854 H   0  0  0  0  0  0
   -6.6911   -0.3336    4.4127 H   0  0  0  0  0  0
    7.7636    5.6972    1.4029 H   0  0  0  0  0  0
    8.3878    4.9848   -0.0815 H   0  0  0  0  0  0
    7.5836    7.3203   -0.4976 H   0  0  0  0  0  0
    6.6029    6.1702   -1.4038 H   0  0  0  0  0  0
    5.9777    6.8849    0.0829 H   0  0  0  0  0  0
   -0.6030   -0.0967    0.1272 N   0  3  0  0  0  0
   -0.7874   -1.0889    0.1693 H   0  0  0  0  0  0
  1 12  2  0  0  0
  2 26  1  0  0  0
  2 39  1  0  0  0
  3 26  2  0  0  0
  4  7  1  0  0  0
  4 13  1  0  0  0
  4 15  1  0  0  0
  5 12  1  0  0  0
  5 13  1  0  0  0
  5 16  1  0  0  0
  6 27  3  0  0  0
  7  8  1  0  0  0
  7  9  1  0  0  0
  7 12  1  0  0  0
  8 10  1  0  0  0
  8 41  1  0  0  0
  8 42  1  0  0  0
  9 11  1  0  0  0
  9 43  1  0  0  0
  9 44  1  0  0  0
 10 45  1  0  0  0
 10 46  1  0  0  0
 10 79  1  0  0  0
 11 47  1  0  0  0
 11 48  1  0  0  0
 11 79  1  0  0  0
 13 49  1  0  0  0
 13 50  1  0  0  0
 14 17  1  0  0  0
 14 51  1  0  0  0
 14 52  1  0  0  0
 14 79  1  0  0  0
 15 20  2  0  0  0
 15 21  1  0  0  0
 16 19  1  0  0  0
 16 53  1  0  0  0
 16 54  1  0  0  0
 17 18  1  0  0  0
 17 55  1  0  0  0
 17 56  1  0  0  0
 18 22  1  0  0  0
 18 23  1  0  0  0
 18 27  1  0  0  0
 19 26  1  0  0  0
 19 57  1  0  0  0
 19 58  1  0  0  0
 20 24  1  0  0  0
 20 59  1  0  0  0
 21 25  2  0  0  0
 21 60  1  0  0  0
 22 29  2  0  0  0
 22 31  1  0  0  0
 23 30  2  0  0  0
 23 32  1  0  0  0
 24 28  2  0  0  0
 24 61  1  0  0  0
 25 28  1  0  0  0
 25 62  1  0  0  0
 28 63  1  0  0  0
 29 33  1  0  0  0
 29 64  1  0  0  0
 30 34  1  0  0  0
 30 65  1  0  0  0
 31 35  2  0  0  0
 31 66  1  0  0  0
 32 36  2  0  0  0
 32 67  1  0  0  0
 33 37  2  0  0  0
 33 68  1  0  0  0
 34 38  2  0  0  0
 34 69  1  0  0  0
 35 37  1  0  0  0
 35 70  1  0  0  0
 36 38  1  0  0  0
 36 71  1  0  0  0
 37 72  1  0  0  0
 38 73  1  0  0  0
 39 40  1  0  0  0
 39 74  1  0  0  0
 39 75  1  0  0  0
 40 76  1  0  0  0
 40 77  1  0  0  0
 40 78  1  0  0  0
 79 80  1  0  0  0
M  CHG  1  79   1
M  END
> <LID>
L022597

> <PC_CID>
10030466

> <Names>


> <CAS_Numbers>


$$$$
44214651
                    3D
 Structure written by MMmdl.
 81 88  0  0  1  0            999 V2000
    6.9600   -4.1603   -5.3403 O   0  0  0  0  0  0
    5.9886   -1.5811   -3.3418 O   0  0  0  0  0  0
    6.3429   -6.5515   -7.1186 O   0  0  0  0  0  0
    4.9167    1.3593   -7.1644 O   0  0  0  0  0  0
    5.0709   -0.5092   -5.8963 N   0  0  0  0  0  0
    8.5545   -2.5963   -6.0023 C   0  0  2  0  0  0
    8.8169   -1.1147   -6.2920 C   0  0  1  0  0  0
    7.2074   -2.7381   -5.3147 C   0  0  2  0  0  0
    9.9414   -1.1950   -7.3781 C   0  0  1  0  0  0
    6.9134   -1.4638   -4.4230 C   0  0  1  0  0  0
    7.4903   -0.3682   -6.6869 C   0  0  0  0  0  0
    9.7718   -3.2381   -5.2508 C   0  0  0  0  0  0
    6.4635   -0.3621   -5.4704 C   0  0  1  0  0  0
    8.2715   -3.4871   -7.1343 C   0  0  0  0  0  0
    9.1419   -0.5368   -4.9054 C   0  0  0  0  0  0
    9.4484   -1.9608   -8.6583 C   0  0  0  0  0  0
   11.1374   -2.5937   -5.5935 C   0  0  0  0  0  0
    8.2281   -0.8190   -3.9460 C   0  0  0  0  0  0
    8.7746   -3.3262   -8.4201 C   0  0  0  0  0  0
    7.4384   -4.4728   -6.6149 C   0  0  0  0  0  0
   12.4110   -1.0815   -7.0972 C   0  0  0  0  0  0
   13.6845   -1.9054   -7.0309 C   0  0  0  0  0  0
    8.4584   -4.3851   -9.2990 C   0  0  0  0  0  0
    7.1515   -5.5253   -7.5088 C   0  0  0  0  0  0
   15.0275   -1.2123   -6.9906 C   0  0  0  0  0  0
   14.5268   -1.9499   -5.7751 C   0  0  0  0  0  0
    7.6824   -5.4861   -8.8312 C   0  0  0  0  0  0
    5.0667   -2.6596   -3.3905 C   0  0  0  0  0  0
    4.4117    0.3378   -6.6999 C   0  0  0  0  0  0
    2.9628   -0.0233   -7.0353 C   0  0  0  0  0  0
    2.7055   -0.1791   -8.5489 C   0  0  0  0  0  0
    3.0112   -1.5748   -9.1273 C   0  0  0  0  0  0
    4.4969   -1.9768   -9.1288 C   0  0  0  0  0  0
    4.7451   -3.2395   -9.9323 C   0  0  0  0  0  0
    4.2745   -4.4823   -9.4582 C   0  0  0  0  0  0
    5.4372   -3.1778  -11.1602 C   0  0  0  0  0  0
    4.4865   -5.6538  -10.2109 C   0  0  0  0  0  0
    5.6527   -4.3504  -11.9105 C   0  0  0  0  0  0
    5.1755   -5.5881  -11.4373 C   0  0  0  0  0  0
    6.3974   -2.5669   -6.0311 H   0  0  0  0  0  0
   10.1944   -0.1743   -7.6690 H   0  0  0  0  0  0
    7.0436   -0.8474   -7.5588 H   0  0  0  0  0  0
    7.7068    0.6571   -6.9892 H   0  0  0  0  0  0
    9.8311   -4.3132   -5.4294 H   0  0  0  0  0  0
    9.6293   -3.1657   -4.1720 H   0  0  0  0  0  0
    6.5093    0.6147   -4.9816 H   0  0  0  0  0  0
   10.0697   -0.0171   -4.7167 H   0  0  0  0  0  0
   10.2754   -2.0991   -9.3560 H   0  0  0  0  0  0
    8.7244   -1.3401   -9.1869 H   0  0  0  0  0  0
   11.4117   -1.8846   -4.8122 H   0  0  0  0  0  0
   11.9089   -3.3633   -5.5592 H   0  0  0  0  0  0
    8.3405   -0.5150   -2.9157 H   0  0  0  0  0  0
   12.4409   -0.2785   -6.3589 H   0  0  0  0  0  0
   12.3852   -0.6095   -8.0804 H   0  0  0  0  0  0
   13.6552   -2.8128   -7.6317 H   0  0  0  0  0  0
    4.5719   -1.3139   -5.5461 H   0  0  0  0  0  0
    8.7847   -4.3531  -10.3280 H   0  0  0  0  0  0
   15.0381   -0.1249   -6.9470 H   0  0  0  0  0  0
   15.8436   -1.6638   -7.5513 H   0  0  0  0  0  0
   15.0063   -2.8945   -5.5263 H   0  0  0  0  0  0
   14.2043   -1.3535   -4.9238 H   0  0  0  0  0  0
    7.4471   -6.2876   -9.5160 H   0  0  0  0  0  0
    4.5134   -2.6865   -4.3293 H   0  0  0  0  0  0
    5.5719   -3.6146   -3.2476 H   0  0  0  0  0  0
    4.3440   -2.5505   -2.5821 H   0  0  0  0  0  0
    6.0458   -6.4592   -6.2261 H   0  0  0  0  0  0
    2.6497   -0.9208   -6.4996 H   0  0  0  0  0  0
    2.3421    0.7877   -6.6531 H   0  0  0  0  0  0
    1.6508    0.0306   -8.7302 H   0  0  0  0  0  0
    3.2476    0.5805   -9.1142 H   0  0  0  0  0  0
    2.4238   -2.3281   -8.6011 H   0  0  0  0  0  0
    2.6541   -1.5859  -10.1580 H   0  0  0  0  0  0
    5.1047   -1.1647   -9.5298 H   0  0  0  0  0  0
    4.8453   -2.1546   -8.1122 H   0  0  0  0  0  0
    3.7479   -4.5403   -8.5169 H   0  0  0  0  0  0
    5.8022   -2.2321  -11.5333 H   0  0  0  0  0  0
    4.1251   -6.6032   -9.8442 H   0  0  0  0  0  0
    6.1824   -4.3000  -12.8503 H   0  0  0  0  0  0
    5.3405   -6.4869  -12.0130 H   0  0  0  0  0  0
   11.1864   -1.9027   -6.9177 N   0  3  2  0  0  0
   11.2807   -2.6569   -7.5833 H   0  0  0  0  0  0
  1  8  1  0  0  0
  1 20  1  0  0  0
  2 10  1  0  0  0
  2 28  1  0  0  0
  3 24  1  0  0  0
  3 66  1  0  0  0
  4 29  2  0  0  0
  5 13  1  0  0  0
  5 29  1  0  0  0
  5 56  1  0  0  0
  6  7  1  0  0  0
  6  8  1  0  0  0
  6 12  1  0  0  0
  6 14  1  0  0  0
  7  9  1  0  0  0
  7 11  1  0  0  0
  7 15  1  0  0  0
  8 10  1  0  0  0
  8 40  1  0  0  0
  9 16  1  0  0  0
  9 41  1  0  0  0
  9 80  1  0  0  0
 10 13  1  0  0  0
 10 18  1  0  0  0
 11 13  1  0  0  0
 11 42  1  0  0  0
 11 43  1  0  0  0
 12 17  1  0  0  0
 12 44  1  0  0  0
 12 45  1  0  0  0
 13 46  1  0  0  0
 14 19  2  0  0  0
 14 20  1  0  0  0
 15 18  2  0  0  0
 15 47  1  0  0  0
 16 19  1  0  0  0
 16 48  1  0  0  0
 16 49  1  0  0  0
 17 50  1  0  0  0
 17 51  1  0  0  0
 17 80  1  0  0  0
 18 52  1  0  0  0
 19 23  1  0  0  0
 20 24  2  0  0  0
 21 22  1  0  0  0
 21 53  1  0  0  0
 21 54  1  0  0  0
 21 80  1  0  0  0
 22 25  1  0  0  0
 22 26  1  0  0  0
 22 55  1  0  0  0
 23 27  2  0  0  0
 23 57  1  0  0  0
 24 27  1  0  0  0
 25 26  1  0  0  0
 25 58  1  0  0  0
 25 59  1  0  0  0
 26 60  1  0  0  0
 26 61  1  0  0  0
 27 62  1  0  0  0
 28 63  1  0  0  0
 28 64  1  0  0  0
 28 65  1  0  0  0
 29 30  1  0  0  0
 30 31  1  0  0  0
 30 67  1  0  0  0
 30 68  1  0  0  0
 31 32  1  0  0  0
 31 69  1  0  0  0
 31 70  1  0  0  0
 32 33  1  0  0  0
 32 71  1  0  0  0
 32 72  1  0  0  0
 33 34  1  0  0  0
 33 73  1  0  0  0
 33 74  1  0  0  0
 34 35  2  0  0  0
 34 36  1  0  0  0
 35 37  1  0  0  0
 35 75  1  0  0  0
 36 38  2  0  0  0
 36 76  1  0  0  0
 37 39  2  0  0  0
 37 77  1  0  0  0
 38 39  1  0  0  0
 38 78  1  0  0  0
 39 79  1  0  0  0
 80 81  1  0  0  0
M  CHG  1  80   1
M  END
> <LID>
L018289

> <PC_CID>
44214651

> <Names>


> <CAS_Numbers>


$$$$
107996
                    3D
 Structure written by MMmdl.
 62 66  0  0  1  0            999 V2000
   11.4376   -0.4809   -1.1407 O   0  0  0  0  0  0
    5.6477    1.0343    1.0695 O   0  0  0  0  0  0
    1.8372    4.5614    1.1916 O   0  0  0  0  0  0
    6.8521    0.5790   -0.8004 N   0  0  0  0  0  0
   11.0615   -0.1836    0.2070 C   0  0  2  0  0  0
    8.6721   -1.0935   -0.1216 C   0  0  2  0  0  0
    9.9951   -1.1974    0.6696 C   0  0  0  0  0  0
    8.1294    0.3732   -0.0782 C   0  0  1  0  0  0
   10.4997    1.2522    0.2415 C   0  0  0  0  0  0
    9.2000    1.3764   -0.5658 C   0  0  0  0  0  0
   12.3619   -0.3010    1.0218 C   0  0  0  0  0  0
   13.4433   -0.1235   -0.0209 C   0  0  0  0  0  0
    6.7658   -2.7053   -0.6204 C   0  0  0  0  0  0
    7.0720   -2.0077    1.6627 C   0  0  0  0  0  0
   12.8157   -0.8226   -1.2164 C   0  0  0  0  0  0
    5.7192   -3.4137    0.2352 C   0  0  0  0  0  0
    5.6438   -2.5374    1.4823 C   0  0  0  0  0  0
    6.9117    0.4924   -2.2679 C   0  0  0  0  0  0
    5.7030    0.9076   -0.1551 C   0  0  0  0  0  0
    4.4193    1.1099   -0.9857 C   0  0  0  0  0  0
    3.2271    1.5174   -0.1313 C   0  0  0  0  0  0
    3.0167    2.8843    0.1820 C   0  0  0  0  0  0
    2.3362    0.5280    0.3477 C   0  0  0  0  0  0
    1.8895    3.1984    0.9844 C   0  0  0  0  0  0
    3.6641    4.1363   -0.0960 C   0  0  0  0  0  0
    1.2261    0.8798    1.1433 C   0  0  0  0  0  0
    0.9955    2.2293    1.4679 C   0  0  0  0  0  0
    2.9114    5.0979    0.5341 C   0  0  0  0  0  0
    8.9144   -1.3394   -1.1560 H   0  0  0  0  0  0
   10.3950   -2.2085    0.5787 H   0  0  0  0  0  0
    9.7981   -1.0424    1.7314 H   0  0  0  0  0  0
    8.0014    0.6303    0.9726 H   0  0  0  0  0  0
   11.2381    1.9555   -0.1453 H   0  0  0  0  0  0
   10.3093    1.5470    1.2744 H   0  0  0  0  0  0
    8.8191    2.3949   -0.4797 H   0  0  0  0  0  0
    9.4324    1.2265   -1.6199 H   0  0  0  0  0  0
   12.4336    0.4239    1.8334 H   0  0  0  0  0  0
   12.4529   -1.2950    1.4625 H   0  0  0  0  0  0
   13.5942    0.9349   -0.2369 H   0  0  0  0  0  0
   14.4000   -0.5557    0.2735 H   0  0  0  0  0  0
    7.2408   -3.3758   -1.3371 H   0  0  0  0  0  0
    6.2808   -1.9123   -1.1812 H   0  0  0  0  0  0
    7.6120   -2.6137    2.3907 H   0  0  0  0  0  0
    7.0636   -0.9902    2.0457 H   0  0  0  0  0  0
   12.9188   -1.9048   -1.1253 H   0  0  0  0  0  0
   13.2546   -0.5146   -2.1655 H   0  0  0  0  0  0
    4.7581   -3.5171   -0.2696 H   0  0  0  0  0  0
    6.0691   -4.4116    0.5031 H   0  0  0  0  0  0
    4.9614   -1.7059    1.3017 H   0  0  0  0  0  0
    5.2809   -3.0777    2.3571 H   0  0  0  0  0  0
    6.0941   -0.0971   -2.6825 H   0  0  0  0  0  0
    6.8676    1.4902   -2.7060 H   0  0  0  0  0  0
    7.8270    0.0208   -2.6228 H   0  0  0  0  0  0
    4.5862    1.8732   -1.7465 H   0  0  0  0  0  0
    4.1735    0.1841   -1.5067 H   0  0  0  0  0  0
    2.5049   -0.5117    0.1077 H   0  0  0  0  0  0
    4.5603    4.2814   -0.6805 H   0  0  0  0  0  0
    0.5543    0.1144    1.5035 H   0  0  0  0  0  0
    0.1506    2.5159    2.0761 H   0  0  0  0  0  0
    3.0069    6.1715    0.6064 H   0  0  0  0  0  0
    7.7450   -2.1677    0.3492 N   0  3  0  0  0  0
    8.3563   -2.9579    0.4980 H   0  0  0  0  0  0
  1  5  1  0  0  0
  1 15  1  0  0  0
  2 19  2  0  0  0
  3 24  1  0  0  0
  3 28  1  0  0  0
  4  8  1  0  0  0
  4 18  1  0  0  0
  4 19  1  0  0  0
  5  7  1  0  0  0
  5  9  1  0  0  0
  5 11  1  0  0  0
  6  7  1  0  0  0
  6  8  1  0  0  0
  6 29  1  0  0  0
  6 61  1  0  0  0
  7 30  1  0  0  0
  7 31  1  0  0  0
  8 10  1  0  0  0
  8 32  1  0  0  0
  9 10  1  0  0  0
  9 33  1  0  0  0
  9 34  1  0  0  0
 10 35  1  0  0  0
 10 36  1  0  0  0
 11 12  1  0  0  0
 11 37  1  0  0  0
 11 38  1  0  0  0
 12 15  1  0  0  0
 12 39  1  0  0  0
 12 40  1  0  0  0
 13 16  1  0  0  0
 13 41  1  0  0  0
 13 42  1  0  0  0
 13 61  1  0  0  0
 14 17  1  0  0  0
 14 43  1  0  0  0
 14 44  1  0  0  0
 14 61  1  0  0  0
 15 45  1  0  0  0
 15 46  1  0  0  0
 16 17  1  0  0  0
 16 47  1  0  0  0
 16 48  1  0  0  0
 17 49  1  0  0  0
 17 50  1  0  0  0
 18 51  1  0  0  0
 18 52  1  0  0  0
 18 53  1  0  0  0
 19 20  1  0  0  0
 20 21  1  0  0  0
 20 54  1  0  0  0
 20 55  1  0  0  0
 21 22  2  0  0  0
 21 23  1  0  0  0
 22 24  1  0  0  0
 22 25  1  0  0  0
 23 26  2  0  0  0
 23 56  1  0  0  0
 24 27  2  0  0  0
 25 28  2  0  0  0
 25 57  1  0  0  0
 26 27  1  0  0  0
 26 58  1  0  0  0
 27 59  1  0  0  0
 28 60  1  0  0  0
 61 62  1  0  0  0
M  CHG  1  61   1
M  END
> <LID>
L003623

> <PC_CID>
107996

> <Names>
enadoline

> <CAS_Numbers>
107431-28-7

$$$$
20562109
                    3D
 Structure written by MMmdl.
 45 47  0  0  1  0            999 V2000
    0.1849   -4.2020    1.2518 O   0  0  0  0  0  0
   -4.3118    1.2451   -1.7165 O   0  0  0  0  0  0
   -0.2439   -0.7608    0.3139 C   0  0  2  0  0  0
    0.4475   -0.8182   -1.0944 C   0  0  1  0  0  0
    0.8920   -0.4420    1.3355 C   0  0  0  0  0  0
    1.2025    0.4938   -1.4015 C   0  0  0  0  0  0
   -0.8992   -2.1274    0.6554 C   0  0  0  0  0  0
    1.3698   -2.0510   -1.2855 C   0  0  0  0  0  0
    1.6786    0.8404    0.9890 C   0  0  0  0  0  0
   -1.3896    0.2835    0.3453 C   0  0  0  0  0  0
    0.6774   -3.3840   -0.9639 C   0  0  0  0  0  0
    0.0132   -3.3269    0.4066 C   0  0  0  0  0  0
    3.0627    1.9638   -0.7356 C   0  0  0  0  0  0
   -2.3499    0.3134   -0.6980 C   0  0  0  0  0  0
   -1.5649    1.1897    1.4235 C   0  0  0  0  0  0
   -3.4116    1.2384   -0.6915 C   0  0  0  0  0  0
   -2.6249    2.1165    1.4320 C   0  0  0  0  0  0
    4.3444    2.0166    0.0728 C   0  0  0  0  0  0
   -3.5466    2.1478    0.3719 C   0  0  0  0  0  0
    4.6709    3.0097    0.9136 C   0  0  0  0  0  0
   -0.3100   -0.9369   -1.8661 H   0  0  0  0  0  0
    1.6083   -1.2621    1.3758 H   0  0  0  0  0  0
    0.5045   -0.3909    2.3526 H   0  0  0  0  0  0
    1.6627    0.4242   -2.3881 H   0  0  0  0  0  0
    0.5055    1.3322   -1.4464 H   0  0  0  0  0  0
   -1.7854   -2.2790    0.0388 H   0  0  0  0  0  0
   -1.2391   -2.1371    1.6916 H   0  0  0  0  0  0
    2.2699   -1.9650   -0.6768 H   0  0  0  0  0  0
    1.7213   -2.0815   -2.3174 H   0  0  0  0  0  0
    1.0507    1.7268    1.0738 H   0  0  0  0  0  0
    2.4807    0.9635    1.7170 H   0  0  0  0  0  0
    1.3942   -4.2050   -0.9937 H   0  0  0  0  0  0
   -0.0893   -3.5983   -1.7088 H   0  0  0  0  0  0
    3.3452    1.9221   -1.7883 H   0  0  0  0  0  0
    2.4803    2.8764   -0.5975 H   0  0  0  0  0  0
   -2.3009   -0.3857   -1.5180 H   0  0  0  0  0  0
   -0.9000    1.2026    2.2715 H   0  0  0  0  0  0
   -2.7336    2.8026    2.2591 H   0  0  0  0  0  0
    5.0266    1.1879   -0.0521 H   0  0  0  0  0  0
   -4.3590    2.8597    0.3855 H   0  0  0  0  0  0
    5.6014    2.9890    1.4620 H   0  0  0  0  0  0
    4.0167    3.8558    1.0668 H   0  0  0  0  0  0
   -4.9898    1.8952   -1.6134 H   0  0  0  0  0  0
    2.2460    0.7763   -0.3830 N   0  3  2  0  0  0
    2.8735   -0.0150   -0.4006 H   0  0  0  0  0  0
  1 12  2  0  0  0
  2 16  1  0  0  0
  2 43  1  0  0  0
  3  4  1  0  0  0
  3  5  1  0  0  0
  3  7  1  0  0  0
  3 10  1  0  0  0
  4  6  1  0  0  0
  4  8  1  0  0  0
  4 21  1  0  0  0
  5  9  1  0  0  0
  5 22  1  0  0  0
  5 23  1  0  0  0
  6 24  1  0  0  0
  6 25  1  0  0  0
  6 44  1  0  0  0
  7 12  1  0  0  0
  7 26  1  0  0  0
  7 27  1  0  0  0
  8 11  1  0  0  0
  8 28  1  0  0  0
  8 29  1  0  0  0
  9 30  1  0  0  0
  9 31  1  0  0  0
  9 44  1  0  0  0
 10 14  2  0  0  0
 10 15  1  0  0  0
 11 12  1  0  0  0
 11 32  1  0  0  0
 11 33  1  0  0  0
 13 18  1  0  0  0
 13 34  1  0  0  0
 13 35  1  0  0  0
 13 44  1  0  0  0
 14 16  1  0  0  0
 14 36  1  0  0  0
 15 17  2  0  0  0
 15 37  1  0  0  0
 16 19  2  0  0  0
 17 19  1  0  0  0
 17 38  1  0  0  0
 18 20  2  0  0  0
 18 39  1  0  0  0
 19 40  1  0  0  0
 20 41  1  0  0  0
 20 42  1  0  0  0
 44 45  1  0  0  0
M  CHG  1  44   1
M  END
> <LID>
L009519

> <PC_CID>
20562109

> <Names>


> <CAS_Numbers>


$$$$
10075001
                    3D
 Structure written by MMmdl.
 70 74  0  0  1  0            999 V2000
    2.8521    2.3446    1.3587 O   0  0  0  0  0  0
    6.0544    3.7166   -0.5927 O   0  0  0  0  0  0
    4.0407   -0.7759    0.1472 N   0  0  0  0  0  0
    4.8196    1.2969    0.8846 N   0  0  0  0  0  0
   -4.0020    3.3603    0.4544 N   0  0  0  0  0  0
    2.8678    0.0665    0.4616 C   0  0  0  0  0  0
    1.9959   -0.5445    1.5982 C   0  0  0  0  0  0
    2.0078    0.3621   -0.8020 C   0  0  0  0  0  0
    0.6451    0.1706    1.8013 C   0  0  0  0  0  0
    0.6608    1.0439   -0.4924 C   0  0  0  0  0  0
    3.4950    1.3752    0.9553 C   0  0  0  0  0  0
    5.2592    0.0000    0.4093 C   0  0  0  0  0  0
   -1.4824    0.8109    0.7366 C   0  0  0  0  0  0
    4.0931   -2.0604   -0.3277 C   0  0  0  0  0  0
   -2.4418    0.4437   -0.4199 C   0  0  0  0  0  0
    5.7787    2.3177    1.3058 C   0  0  0  0  0  0
   -3.9366    0.8010   -0.1800 C   0  0  0  0  0  0
    5.3484   -2.6886   -0.5496 C   0  0  0  0  0  0
    2.9311   -2.8222   -0.6204 C   0  0  0  0  0  0
    6.5889    2.8391    0.1195 C   0  0  0  0  0  0
   -4.7150    0.5306   -1.4781 C   0  0  0  0  0  0
   -4.5945    0.0117    0.9692 C   0  0  0  0  0  0
    5.4384   -4.0067   -1.0368 C   0  0  0  0  0  0
    3.0177   -4.1406   -1.1078 C   0  0  0  0  0  0
   -3.9757    2.2369    0.1745 C   0  0  0  0  0  0
    4.2720   -4.7364   -1.3172 C   0  0  0  0  0  0
   -4.9182   -0.8028   -1.9072 C   0  0  0  0  0  0
   -5.7902    0.5023    1.5469 C   0  0  0  0  0  0
   -5.2280    1.5822   -2.2773 C   0  0  0  0  0  0
   -4.0717   -1.2158    1.4488 C   0  0  0  0  0  0
   -5.6218   -1.0809   -3.0945 C   0  0  0  0  0  0
   -6.4318   -0.1956    2.5877 C   0  0  0  0  0  0
   -5.9318    1.3040   -3.4651 C   0  0  0  0  0  0
   -4.7129   -1.9142    2.4901 C   0  0  0  0  0  0
   -6.1306   -0.0270   -3.8744 C   0  0  0  0  0  0
   -5.8915   -1.4037    3.0629 C   0  0  0  0  0  0
    2.5493   -0.5287    2.5388 H   0  0  0  0  0  0
    1.7886   -1.5968    1.4283 H   0  0  0  0  0  0
    1.7986   -0.5398   -1.3698 H   0  0  0  0  0  0
    2.5710    0.9906   -1.4943 H   0  0  0  0  0  0
    0.0602   -0.4001    2.5238 H   0  0  0  0  0  0
    0.7804    1.1604    2.2374 H   0  0  0  0  0  0
    0.0950    1.1115   -1.4206 H   0  0  0  0  0  0
    0.8066    2.0700   -0.1544 H   0  0  0  0  0  0
    5.8743   -0.4805    1.1718 H   0  0  0  0  0  0
    5.8462    0.1135   -0.5035 H   0  0  0  0  0  0
   -1.8783    0.3988    1.6642 H   0  0  0  0  0  0
   -1.4362    1.8908    0.8844 H   0  0  0  0  0  0
   -2.1195    0.9823   -1.3112 H   0  0  0  0  0  0
   -2.3336   -0.6103   -0.6754 H   0  0  0  0  0  0
    5.2810    3.1578    1.7925 H   0  0  0  0  0  0
    6.4536    1.8879    2.0470 H   0  0  0  0  0  0
    6.2787   -2.1784   -0.3527 H   0  0  0  0  0  0
    1.9389   -2.4295   -0.4849 H   0  0  0  0  0  0
    6.4071   -4.4573   -1.1954 H   0  0  0  0  0  0
    2.1165   -4.6960   -1.3219 H   0  0  0  0  0  0
    4.3391   -5.7475   -1.6912 H   0  0  0  0  0  0
   -4.5333   -1.6266   -1.3249 H   0  0  0  0  0  0
   -6.2310    1.4217    1.1900 H   0  0  0  0  0  0
   -5.0931    2.6168   -2.0013 H   0  0  0  0  0  0
   -3.1775   -1.6489    1.0302 H   0  0  0  0  0  0
   -5.7706   -2.1041   -3.4070 H   0  0  0  0  0  0
   -7.3418    0.1952    3.0189 H   0  0  0  0  0  0
   -6.3191    2.1150   -4.0643 H   0  0  0  0  0  0
   -4.3012   -2.8466    2.8475 H   0  0  0  0  0  0
   -6.6705   -0.2388   -4.7856 H   0  0  0  0  0  0
   -6.3837   -1.9409    3.8604 H   0  0  0  0  0  0
    7.7196    2.3377   -0.0630 O   0  5  0  0  0  0
   -0.1093    0.2834    0.5267 N   0  3  0  0  0  0
   -0.2141   -0.6586    0.1777 H   0  0  0  0  0  0
  1 11  2  0  0  0
  2 20  2  0  0  0
  3  6  1  0  0  0
  3 12  1  0  0  0
  3 14  1  0  0  0
  4 11  1  0  0  0
  4 12  1  0  0  0
  4 16  1  0  0  0
  5 25  3  0  0  0
  6  7  1  0  0  0
  6  8  1  0  0  0
  6 11  1  0  0  0
  7  9  1  0  0  0
  7 37  1  0  0  0
  7 38  1  0  0  0
  8 10  1  0  0  0
  8 39  1  0  0  0
  8 40  1  0  0  0
  9 41  1  0  0  0
  9 42  1  0  0  0
  9 69  1  0  0  0
 10 43  1  0  0  0
 10 44  1  0  0  0
 10 69  1  0  0  0
 12 45  1  0  0  0
 12 46  1  0  0  0
 13 15  1  0  0  0
 13 47  1  0  0  0
 13 48  1  0  0  0
 13 69  1  0  0  0
 14 18  2  0  0  0
 14 19  1  0  0  0
 15 17  1  0  0  0
 15 49  1  0  0  0
 15 50  1  0  0  0
 16 20  1  0  0  0
 16 51  1  0  0  0
 16 52  1  0  0  0
 17 21  1  0  0  0
 17 22  1  0  0  0
 17 25  1  0  0  0
 18 23  1  0  0  0
 18 53  1  0  0  0
 19 24  2  0  0  0
 19 54  1  0  0  0
 20 68  1  0  0  0
 21 27  2  0  0  0
 21 29  1  0  0  0
 22 28  2  0  0  0
 22 30  1  0  0  0
 23 26  2  0  0  0
 23 55  1  0  0  0
 24 26  1  0  0  0
 24 56  1  0  0  0
 26 57  1  0  0  0
 27 31  1  0  0  0
 27 58  1  0  0  0
 28 32  1  0  0  0
 28 59  1  0  0  0
 29 33  2  0  0  0
 29 60  1  0  0  0
 30 34  2  0  0  0
 30 61  1  0  0  0
 31 35  2  0  0  0
 31 62  1  0  0  0
 32 36  2  0  0  0
 32 63  1  0  0  0
 33 35  1  0  0  0
 33 64  1  0  0  0
 34 36  1  0  0  0
 34 65  1  0  0  0
 35 66  1  0  0  0
 36 67  1  0  0  0
 69 70  1  0  0  0
M  CHG  2  68  -1  69   1
M  END
> <LID>
L022590

> <PC_CID>
10075001

> <Names>


> <CAS_Numbers>


$$$$
4095
                    3D
 Structure written by MMmdl.
 51 52  0  0  1  0            999 V2000
    0.9085    2.1569   -1.2620 O   0  0  0  0  0  0
    0.0908    0.0398   -0.3620 C   0  0  0  0  0  0
    1.4742    0.0232    0.3828 C   0  0  0  0  0  0
    1.6949    1.0758    1.5119 C   0  0  1  0  0  0
   -0.0385   -1.1713   -1.3262 C   0  0  0  0  0  0
   -1.0162   -0.0042    0.7240 C   0  0  0  0  0  0
    0.0082    1.3141   -1.2570 C   0  0  0  0  0  0
    1.4986    0.4908    2.9289 C   0  0  0  0  0  0
   -1.2272    1.5001   -2.1525 C   0  0  0  0  0  0
   -1.3177   -1.6649   -1.6952 C   0  0  0  0  0  0
   -1.7672    1.1375    1.1116 C   0  0  0  0  0  0
    1.0984   -1.8000   -1.8982 C   0  0  0  0  0  0
   -1.2578   -1.2207    1.4106 C   0  0  0  0  0  0
    3.0896    3.0840    1.9810 C   0  0  0  0  0  0
    4.1907    0.9032    1.6942 C   0  0  0  0  0  0
   -1.4327    2.9489   -2.6196 C   0  0  0  0  0  0
   -1.4566   -2.7518   -2.5785 C   0  0  0  0  0  0
   -2.7418    1.0527    2.1244 C   0  0  0  0  0  0
    0.9606   -2.8876   -2.7822 C   0  0  0  0  0  0
   -2.2328   -1.3062    2.4222 C   0  0  0  0  0  0
   -0.3162   -3.3673   -3.1217 C   0  0  0  0  0  0
   -2.9789   -0.1692    2.7781 C   0  0  0  0  0  0
    1.6444   -0.9698    0.8018 H   0  0  0  0  0  0
    2.2689    0.1511   -0.3525 H   0  0  0  0  0  0
    0.9512    1.8627    1.3884 H   0  0  0  0  0  0
    2.1608   -0.3544    3.1176 H   0  0  0  0  0  0
    1.6816    1.2361    3.7023 H   0  0  0  0  0  0
    0.4800    0.1371    3.0763 H   0  0  0  0  0  0
   -1.1229    0.8526   -3.0232 H   0  0  0  0  0  0
   -2.1142    1.1641   -1.6166 H   0  0  0  0  0  0
   -2.2152   -1.2091   -1.3039 H   0  0  0  0  0  0
   -1.6094    2.1014    0.6523 H   0  0  0  0  0  0
    2.1007   -1.4677   -1.6835 H   0  0  0  0  0  0
   -0.6888   -2.1050    1.1632 H   0  0  0  0  0  0
    4.0262    3.5781    1.7207 H   0  0  0  0  0  0
    2.2769    3.7228    1.6337 H   0  0  0  0  0  0
    3.0354    3.0190    3.0679 H   0  0  0  0  0  0
    5.1117    1.3887    1.3701 H   0  0  0  0  0  0
    4.2635    0.7387    2.7698 H   0  0  0  0  0  0
    4.1421   -0.0681    1.2016 H   0  0  0  0  0  0
   -2.3383    3.0327   -3.2205 H   0  0  0  0  0  0
   -1.5347    3.6285   -1.7728 H   0  0  0  0  0  0
   -0.5991    3.2936   -3.2326 H   0  0  0  0  0  0
   -2.4407   -3.1113   -2.8413 H   0  0  0  0  0  0
   -3.3062    1.9304    2.4034 H   0  0  0  0  0  0
    1.8392   -3.3533   -3.2040 H   0  0  0  0  0  0
   -2.4049   -2.2449    2.9281 H   0  0  0  0  0  0
   -0.4204   -4.2008   -3.8007 H   0  0  0  0  0  0
   -3.7261   -0.2324    3.5554 H   0  0  0  0  0  0
    3.0194    1.7451    1.3510 N   0  3  0  0  0  0
    3.0936    1.9261    0.3593 H   0  0  0  0  0  0
  1  7  2  0  0  0
  2  3  1  0  0  0
  2  5  1  0  0  0
  2  6  1  0  0  0
  2  7  1  0  0  0
  3  4  1  0  0  0
  3 23  1  0  0  0
  3 24  1  0  0  0
  4  8  1  0  0  0
  4 25  1  0  0  0
  4 50  1  0  0  0
  5 10  2  0  0  0
  5 12  1  0  0  0
  6 11  2  0  0  0
  6 13  1  0  0  0
  7  9  1  0  0  0
  8 26  1  0  0  0
  8 27  1  0  0  0
  8 28  1  0  0  0
  9 16  1  0  0  0
  9 29  1  0  0  0
  9 30  1  0  0  0
 10 17  1  0  0  0
 10 31  1  0  0  0
 11 18  1  0  0  0
 11 32  1  0  0  0
 12 19  2  0  0  0
 12 33  1  0  0  0
 13 20  2  0  0  0
 13 34  1  0  0  0
 14 35  1  0  0  0
 14 36  1  0  0  0
 14 37  1  0  0  0
 14 50  1  0  0  0
 15 38  1  0  0  0
 15 39  1  0  0  0
 15 40  1  0  0  0
 15 50  1  0  0  0
 16 41  1  0  0  0
 16 42  1  0  0  0
 16 43  1  0  0  0
 17 21  2  0  0  0
 17 44  1  0  0  0
 18 22  2  0  0  0
 18 45  1  0  0  0
 19 21  1  0  0  0
 19 46  1  0  0  0
 20 22  1  0  0  0
 20 47  1  0  0  0
 21 48  1  0  0  0
 22 49  1  0  0  0
 50 51  1  0  0  0
M  CHG  1  50   1
M  END
> <LID>
L000874

> <PC_CID>
4095

> <Names>
Algolysin;Methadone

> <CAS_Numbers>
1095-90-5;125-56-4;125-58-6;297-88-1;5653-80-5;76-99-3

$$$$
18687610
                    3D
 Structure written by MMmdl.
 53 55  0  0  1  0            999 V2000
    7.9403   -0.9805   -0.9838 F   0  0  0  0  0  0
    7.5384    1.0144   -0.2378 F   0  0  0  0  0  0
    7.3969   -0.6818    1.0930 F   0  0  0  0  0  0
   -4.3642    2.7552    2.4546 O   0  0  0  0  0  0
   -1.1449   -1.0209   -2.1020 O   0  0  0  0  0  0
    1.0156    0.4426    0.2122 O   0  0  0  0  0  0
   -0.7236   -0.0976   -1.1119 N   0  0  0  0  0  0
   -3.5091    3.1443    0.2237 C   0  0  0  0  0  0
   -4.6964    3.3003    1.1927 C   0  0  1  0  0  0
   -5.0983    1.4013   -0.2230 C   0  0  0  0  0  0
   -5.8294    2.4828    0.5663 C   0  0  0  0  0  0
   -2.8193    1.2428   -1.3423 C   0  0  0  0  0  0
   -1.8319    0.5283   -0.3725 C   0  0  1  0  0  0
   -2.4850   -0.4368    0.6152 C   0  0  0  0  0  0
    0.5816   -0.1614   -0.7699 C   0  0  0  0  0  0
   -3.1734   -1.5908    0.1743 C   0  0  0  0  0  0
   -2.4096   -0.1693    2.0003 C   0  0  0  0  0  0
    1.5430   -0.9756   -1.6594 C   0  0  0  0  0  0
   -3.7772   -2.4590    1.1041 C   0  0  0  0  0  0
   -3.0145   -1.0371    2.9294 C   0  0  0  0  0  0
    3.0021   -0.7911   -1.2685 C   0  0  0  0  0  0
   -3.6985   -2.1827    2.4818 C   0  0  0  0  0  0
    3.7643    0.2490   -1.8401 C   0  0  0  0  0  0
    3.6037   -1.6631   -0.3372 C   0  0  0  0  0  0
    5.1147    0.4192   -1.4783 C   0  0  0  0  0  0
    4.9541   -1.4920    0.0240 C   0  0  0  0  0  0
    5.7172   -0.4463   -0.5396 C   0  0  0  0  0  0
    7.1786   -0.2671   -0.1554 C   0  0  0  0  0  0
   -3.3422    4.0659   -0.3346 H   0  0  0  0  0  0
   -2.5906    2.9358    0.7682 H   0  0  0  0  0  0
   -4.9814    4.3444    1.3275 H   0  0  0  0  0  0
   -4.8429    0.5911    0.4546 H   0  0  0  0  0  0
   -5.7065    0.9888   -1.0285 H   0  0  0  0  0  0
   -6.5316    2.0787    1.2969 H   0  0  0  0  0  0
   -6.3957    3.1126   -0.1212 H   0  0  0  0  0  0
   -3.3000    0.5176   -1.9997 H   0  0  0  0  0  0
   -2.2417    1.8980   -1.9959 H   0  0  0  0  0  0
   -1.3596    1.3090    0.2208 H   0  0  0  0  0  0
   -3.7148    3.3062    2.8655 H   0  0  0  0  0  0
   -3.2565   -1.8162   -0.8777 H   0  0  0  0  0  0
   -1.8896    0.7065    2.3603 H   0  0  0  0  0  0
    1.2858   -2.0337   -1.5946 H   0  0  0  0  0  0
    1.4168   -0.6799   -2.7019 H   0  0  0  0  0  0
   -2.0469   -0.7899   -2.2582 H   0  0  0  0  0  0
   -4.3036   -3.3372    0.7598 H   0  0  0  0  0  0
   -2.9537   -0.8233    3.9864 H   0  0  0  0  0  0
   -4.1625   -2.8485    3.1946 H   0  0  0  0  0  0
    3.3148    0.9207   -2.5568 H   0  0  0  0  0  0
    3.0300   -2.4646    0.1050 H   0  0  0  0  0  0
    5.6872    1.2178   -1.9266 H   0  0  0  0  0  0
    5.4024   -2.1691    0.7361 H   0  0  0  0  0  0
   -3.8944    2.0837   -0.7395 N   0  3  2  0  0  0
   -4.2602    2.6048   -1.5239 H   0  0  0  0  0  0
  1 28  1  0  0  0
  2 28  1  0  0  0
  3 28  1  0  0  0
  4  9  1  0  0  0
  4 39  1  0  0  0
  5  7  1  0  0  0
  5 44  1  0  0  0
  6 15  2  0  0  0
  7 13  1  0  0  0
  7 15  1  0  0  0
  8  9  1  0  0  0
  8 29  1  0  0  0
  8 30  1  0  0  0
  8 52  1  0  0  0
  9 11  1  0  0  0
  9 31  1  0  0  0
 10 11  1  0  0  0
 10 32  1  0  0  0
 10 33  1  0  0  0
 10 52  1  0  0  0
 11 34  1  0  0  0
 11 35  1  0  0  0
 12 13  1  0  0  0
 12 36  1  0  0  0
 12 37  1  0  0  0
 12 52  1  0  0  0
 13 14  1  0  0  0
 13 38  1  0  0  0
 14 16  2  0  0  0
 14 17  1  0  0  0
 15 18  1  0  0  0
 16 19  1  0  0  0
 16 40  1  0  0  0
 17 20  2  0  0  0
 17 41  1  0  0  0
 18 21  1  0  0  0
 18 42  1  0  0  0
 18 43  1  0  0  0
 19 22  2  0  0  0
 19 45  1  0  0  0
 20 22  1  0  0  0
 20 46  1  0  0  0
 21 23  2  0  0  0
 21 24  1  0  0  0
 22 47  1  0  0  0
 23 25  1  0  0  0
 23 48  1  0  0  0
 24 26  2  0  0  0
 24 49  1  0  0  0
 25 27  2  0  0  0
 25 50  1  0  0  0
 26 27  1  0  0  0
 26 51  1  0  0  0
 27 28  1  0  0  0
 52 53  1  0  0  0
M  CHG  1  52   1
M  END
> <LID>
L015591

> <PC_CID>
18687610

> <Names>


> <CAS_Numbers>


$$$$
14001
                    3D
 Structure written by MMmdl.
 65 69  0  0  1  0            999 V2000
    3.1536   -3.1955   -1.2731 O   0  0  0  0  0  0
    4.8500   -0.2627   -0.2050 N   0  0  0  0  0  0
    5.2569   -2.4324   -0.9280 N   0  0  0  0  0  0
   -3.7529   -3.0525   -0.2742 N   0  0  0  0  0  0
    3.5450   -0.9056   -0.4766 C   0  0  0  0  0  0
    2.7662   -0.1916   -1.6203 C   0  0  0  0  0  0
    2.6687   -1.0183    0.8055 C   0  0  0  0  0  0
    1.3163   -0.6872   -1.7883 C   0  0  0  0  0  0
    1.2227   -1.4782    0.5330 C   0  0  0  0  0  0
    3.9407   -2.3118   -0.9400 C   0  0  0  0  0  0
    5.9202   -1.2280   -0.4908 C   0  0  0  0  0  0
   -0.8717   -0.9411   -0.6847 C   0  0  0  0  0  0
    5.1231    1.0052    0.2382 C   0  0  0  0  0  0
   -1.7438   -0.3853    0.4657 C   0  0  0  0  0  0
   -3.2797   -0.5120    0.2539 C   0  0  0  0  0  0
    6.4687    1.4187    0.4333 C   0  0  0  0  0  0
    4.1091    1.9577    0.5221 C   0  0  0  0  0  0
   -3.9869   -0.0723    1.5464 C   0  0  0  0  0  0
   -3.8229    0.3255   -0.9208 C   0  0  0  0  0  0
    6.7846    2.7136    0.8874 C   0  0  0  0  0  0
    4.4217    3.2535    0.9764 C   0  0  0  0  0  0
   -3.5477   -1.9369   -0.0410 C   0  0  0  0  0  0
    5.7606    3.6349    1.1602 C   0  0  0  0  0  0
   -3.9673    1.2913    1.9254 C   0  0  0  0  0  0
   -5.0867    0.0036   -1.4715 C   0  0  0  0  0  0
   -4.6519   -0.9972    2.3890 C   0  0  0  0  0  0
   -3.1237    1.4392   -1.4507 C   0  0  0  0  0  0
   -4.6011    1.7228    3.1062 C   0  0  0  0  0  0
   -5.6261    0.7527   -2.5345 C   0  0  0  0  0  0
   -5.2858   -0.5657    3.5704 C   0  0  0  0  0  0
   -3.6626    2.1887   -2.5142 C   0  0  0  0  0  0
   -5.2624    0.7941    3.9297 C   0  0  0  0  0  0
   -4.9125    1.8447   -3.0595 C   0  0  0  0  0  0
    2.7324    0.8843   -1.4767 H   0  0  0  0  0  0
    3.2957   -0.3201   -2.5660 H   0  0  0  0  0  0
    3.1322   -1.7095    1.5116 H   0  0  0  0  0  0
    2.6188   -0.0776    1.3459 H   0  0  0  0  0  0
    0.8204   -0.0546   -2.5256 H   0  0  0  0  0  0
    1.2871   -1.7002   -2.1903 H   0  0  0  0  0  0
    0.6679   -1.4215    1.4685 H   0  0  0  0  0  0
    1.1927   -2.5247    0.2292 H   0  0  0  0  0  0
    6.5112   -1.4395    0.4016 H   0  0  0  0  0  0
    6.5791   -0.8659   -1.2814 H   0  0  0  0  0  0
   -1.2087   -0.5015   -1.6230 H   0  0  0  0  0  0
   -1.0021   -2.0185   -0.7951 H   0  0  0  0  0  0
    5.7552   -3.2696   -1.1933 H   0  0  0  0  0  0
   -1.4965   -0.9342    1.3745 H   0  0  0  0  0  0
   -1.4677    0.6474    0.6786 H   0  0  0  0  0  0
    7.2982    0.7560    0.2407 H   0  0  0  0  0  0
    3.0635    1.7351    0.4041 H   0  0  0  0  0  0
    7.8169    2.9992    1.0262 H   0  0  0  0  0  0
    3.6292    3.9572    1.1844 H   0  0  0  0  0  0
    6.0010    4.6287    1.5087 H   0  0  0  0  0  0
   -3.4630    2.0203    1.3089 H   0  0  0  0  0  0
   -5.6593   -0.8229   -1.0765 H   0  0  0  0  0  0
   -4.6895   -2.0494    2.1519 H   0  0  0  0  0  0
   -2.1687    1.7449   -1.0546 H   0  0  0  0  0  0
   -4.5793    2.7673    3.3801 H   0  0  0  0  0  0
   -6.5906    0.4909   -2.9444 H   0  0  0  0  0  0
   -5.7909   -1.2809    4.2029 H   0  0  0  0  0  0
   -3.1171    3.0328   -2.9099 H   0  0  0  0  0  0
   -5.7491    1.1235    4.8359 H   0  0  0  0  0  0
   -5.3261    2.4213   -3.8739 H   0  0  0  0  0  0
    0.5712   -0.6357   -0.5044 N   0  3  0  0  0  0
    0.6241    0.3216   -0.1867 H   0  0  0  0  0  0
  1 10  2  0  0  0
  2  5  1  0  0  0
  2 11  1  0  0  0
  2 13  1  0  0  0
  3 10  1  0  0  0
  3 11  1  0  0  0
  3 46  1  0  0  0
  4 22  3  0  0  0
  5  6  1  0  0  0
  5  7  1  0  0  0
  5 10  1  0  0  0
  6  8  1  0  0  0
  6 34  1  0  0  0
  6 35  1  0  0  0
  7  9  1  0  0  0
  7 36  1  0  0  0
  7 37  1  0  0  0
  8 38  1  0  0  0
  8 39  1  0  0  0
  8 64  1  0  0  0
  9 40  1  0  0  0
  9 41  1  0  0  0
  9 64  1  0  0  0
 11 42  1  0  0  0
 11 43  1  0  0  0
 12 14  1  0  0  0
 12 44  1  0  0  0
 12 45  1  0  0  0
 12 64  1  0  0  0
 13 16  2  0  0  0
 13 17  1  0  0  0
 14 15  1  0  0  0
 14 47  1  0  0  0
 14 48  1  0  0  0
 15 18  1  0  0  0
 15 19  1  0  0  0
 15 22  1  0  0  0
 16 20  1  0  0  0
 16 49  1  0  0  0
 17 21  2  0  0  0
 17 50  1  0  0  0
 18 24  2  0  0  0
 18 26  1  0  0  0
 19 25  2  0  0  0
 19 27  1  0  0  0
 20 23  2  0  0  0
 20 51  1  0  0  0
 21 23  1  0  0  0
 21 52  1  0  0  0
 23 53  1  0  0  0
 24 28  1  0  0  0
 24 54  1  0  0  0
 25 29  1  0  0  0
 25 55  1  0  0  0
 26 30  2  0  0  0
 26 56  1  0  0  0
 27 31  2  0  0  0
 27 57  1  0  0  0
 28 32  2  0  0  0
 28 58  1  0  0  0
 29 33  2  0  0  0
 29 59  1  0  0  0
 30 32  1  0  0  0
 30 60  1  0  0  0
 31 33  1  0  0  0
 31 61  1  0  0  0
 32 62  1  0  0  0
 33 63  1  0  0  0
 64 65  1  0  0  0
M  CHG  1  64   1
M  END
> <LID>
L022588

> <PC_CID>
14001

> <Names>


> <CAS_Numbers>


$$$$
15123218
                    3D
 Structure written by MMmdl.
 55 57  0  0  1  0            999 V2000
    6.5587    1.3316   -1.4705 Cl  0  0  0  0  0  0
    6.8536    2.7484    1.3713 Cl  0  0  0  0  0  0
    1.2784    0.0363   -0.1077 O   0  0  0  0  0  0
   -3.1374    3.1914   -1.4742 O   0  0  0  0  0  0
   -5.4007    3.3779   -1.3326 O   0  0  0  0  0  0
    0.3816   -2.0471   -0.0179 N   0  0  0  0  0  0
   -0.9584   -1.5687   -0.4439 C   0  0  1  0  0  0
   -1.7150   -2.5640   -1.3726 C   0  0  0  0  0  0
   -1.7727   -1.1595    0.8103 C   0  0  0  0  0  0
   -1.1666   -3.9937   -1.3839 C   0  0  0  0  0  0
    0.5349   -3.4657    0.3724 C   0  0  0  0  0  0
   -0.6562   -4.3608    0.0028 C   0  0  0  0  0  0
   -4.0229   -0.5773    1.6372 C   0  0  0  0  0  0
   -2.9418    0.8608   -0.0506 C   0  0  0  0  0  0
    1.4113   -1.1689    0.1179 C   0  0  0  0  0  0
   -5.4381   -0.1589    1.2053 C   0  0  0  0  0  0
   -4.2932    1.5586   -0.2269 C   0  0  0  0  0  0
    2.7892   -1.6965    0.5712 C   0  0  0  0  0  0
   -5.4188    1.0857    0.3434 C   0  0  0  0  0  0
    3.8099   -0.5841    0.7655 C   0  0  0  0  0  0
   -4.3536    2.7884   -1.0568 C   0  0  0  0  0  0
    4.6291   -0.1765   -0.3086 C   0  0  0  0  0  0
    3.9450    0.0441    2.0213 C   0  0  0  0  0  0
    5.5739    0.8540   -0.1335 C   0  0  0  0  0  0
    4.8889    1.0736    2.1990 C   0  0  0  0  0  0
    5.7045    1.4817    1.1251 C   0  0  0  0  0  0
   -3.0165    4.3538   -2.2770 C   0  0  0  0  0  0
   -0.8234   -0.6778   -1.0569 H   0  0  0  0  0  0
   -1.7047   -2.1869   -2.3961 H   0  0  0  0  0  0
   -2.7690   -2.6053   -1.0983 H   0  0  0  0  0  0
   -1.9461   -2.0520    1.4120 H   0  0  0  0  0  0
   -1.1943   -0.4832    1.4419 H   0  0  0  0  0  0
   -1.9384   -4.6913   -1.7106 H   0  0  0  0  0  0
   -0.3504   -4.0740   -2.1034 H   0  0  0  0  0  0
    0.7202   -3.5393    1.4450 H   0  0  0  0  0  0
    1.4115   -3.8773   -0.1296 H   0  0  0  0  0  0
   -0.3542   -5.4082    0.0314 H   0  0  0  0  0  0
   -1.4579   -4.2542    0.7341 H   0  0  0  0  0  0
   -3.6609    0.0777    2.4316 H   0  0  0  0  0  0
   -4.0638   -1.5850    2.0527 H   0  0  0  0  0  0
   -2.4401    0.8062   -1.0164 H   0  0  0  0  0  0
   -2.3199    1.4659    0.6112 H   0  0  0  0  0  0
   -6.0577    0.0198    2.0846 H   0  0  0  0  0  0
   -5.9149   -0.9580    0.6367 H   0  0  0  0  0  0
    2.6900   -2.2423    1.5100 H   0  0  0  0  0  0
    3.1724   -2.3977   -0.1709 H   0  0  0  0  0  0
   -6.3717    1.5747    0.1948 H   0  0  0  0  0  0
    4.5308   -0.6522   -1.2736 H   0  0  0  0  0  0
    3.3229   -0.2593    2.8507 H   0  0  0  0  0  0
    4.9863    1.5519    3.1625 H   0  0  0  0  0  0
   -1.9685    4.5292   -2.5196 H   0  0  0  0  0  0
   -3.5678    4.2406   -3.2113 H   0  0  0  0  0  0
   -3.3955    5.2310   -1.7512 H   0  0  0  0  0  0
   -3.0780   -0.5210    0.4937 N   0  3  1  0  0  0
   -3.5007   -1.0805   -0.2333 H   0  0  0  0  0  0
  1 24  1  0  0  0
  2 26  1  0  0  0
  3 15  2  0  0  0
  4 21  1  0  0  0
  4 27  1  0  0  0
  5 21  2  0  0  0
  6  7  1  0  0  0
  6 11  1  0  0  0
  6 15  1  0  0  0
  7  8  1  0  0  0
  7  9  1  0  0  0
  7 28  1  0  0  0
  8 10  1  0  0  0
  8 29  1  0  0  0
  8 30  1  0  0  0
  9 31  1  0  0  0
  9 32  1  0  0  0
  9 54  1  0  0  0
 10 12  1  0  0  0
 10 33  1  0  0  0
 10 34  1  0  0  0
 11 12  1  0  0  0
 11 35  1  0  0  0
 11 36  1  0  0  0
 12 37  1  0  0  0
 12 38  1  0  0  0
 13 16  1  0  0  0
 13 39  1  0  0  0
 13 40  1  0  0  0
 13 54  1  0  0  0
 14 17  1  0  0  0
 14 41  1  0  0  0
 14 42  1  0  0  0
 14 54  1  0  0  0
 15 18  1  0  0  0
 16 19  1  0  0  0
 16 43  1  0  0  0
 16 44  1  0  0  0
 17 19  2  0  0  0
 17 21  1  0  0  0
 18 20  1  0  0  0
 18 45  1  0  0  0
 18 46  1  0  0  0
 19 47  1  0  0  0
 20 22  2  0  0  0
 20 23  1  0  0  0
 22 24  1  0  0  0
 22 48  1  0  0  0
 23 25  2  0  0  0
 23 49  1  0  0  0
 24 26  2  0  0  0
 25 26  1  0  0  0
 25 50  1  0  0  0
 27 51  1  0  0  0
 27 52  1  0  0  0
 27 53  1  0  0  0
 54 55  1  0  0  0
M  CHG  1  54   1
M  END
> <LID>
L003142

> <PC_CID>
15123218

> <Names>


> <CAS_Numbers>


$$$$
44216268
                    3D
 Structure written by MMmdl.
 70 73  0  0  1  0            999 V2000
    2.8283    4.0132   -4.0900 Cl  0  0  0  0  0  0
    2.9675   -0.6757    1.2506 S   0  0  0  0  0  0
   -3.9315   -4.1884    0.7630 O   0  0  0  0  0  0
   -0.8107    1.5675   -0.4886 O   0  0  0  0  0  0
    4.4199   -0.8732    1.1265 O   0  0  0  0  0  0
    2.2577   -1.0030    2.4973 O   0  0  0  0  0  0
    0.0162   -3.1549   -3.3075 O   0  0  0  0  0  0
    4.1926   -2.4534   -3.6271 O   0  0  0  0  0  0
   -0.9889    1.5992    1.7751 N   0  0  0  0  0  0
    2.6763    1.0152    0.9904 N   0  0  0  0  0  0
   -2.3869   -2.6586    1.8802 C   0  0  0  0  0  0
   -3.5809   -3.6040    1.9998 C   0  0  1  0  0  0
   -3.9438   -1.7074    3.4479 C   0  0  0  0  0  0
   -4.6829   -2.6860    2.5267 C   0  0  0  0  0  0
   -1.7589   -0.4710    3.0356 C   0  0  0  0  0  0
   -1.9483    0.4646    1.7993 C   0  0  1  0  0  0
   -3.3879    0.9242    1.5701 C   0  0  0  0  0  0
   -0.4489    2.0203    0.5993 C   0  0  0  0  0  0
   -0.6540    2.2554    3.0480 C   0  0  0  0  0  0
   -4.0003    1.8771    2.4159 C   0  0  0  0  0  0
   -4.1265    0.3909    0.4899 C   0  0  0  0  0  0
    0.6809    3.0731    0.6008 C   0  0  0  0  0  0
   -5.3307    2.2799    2.1906 C   0  0  0  0  0  0
   -5.4567    0.7933    0.2652 C   0  0  0  0  0  0
    1.7650    2.7282   -0.4174 C   0  0  0  0  0  0
   -6.0602    1.7375    1.1163 C   0  0  0  0  0  0
    2.7169    1.7059   -0.1666 C   0  0  0  0  0  0
    1.8093    3.4385   -1.6368 C   0  0  0  0  0  0
    3.7033    1.4226   -1.1371 C   0  0  0  0  0  0
    2.7891    3.1408   -2.6022 C   0  0  0  0  0  0
    3.7374    2.1330   -2.3512 C   0  0  0  0  0  0
    2.1208   -1.4554   -0.1205 C   0  0  0  0  0  0
    2.8320   -1.8289   -1.2757 C   0  0  0  0  0  0
    0.7358   -1.6660   -0.0372 C   0  0  0  0  0  0
    2.1662   -2.4100   -2.3830 C   0  0  0  0  0  0
    0.0580   -2.2423   -1.1245 C   0  0  0  0  0  0
    0.7560   -2.6129   -2.2935 C   0  0  0  0  0  0
    2.9834   -2.7768   -3.6035 C   0  0  0  0  0  0
   -1.4307   -3.1828    1.8775 H   0  0  0  0  0  0
   -2.4747   -2.1125    0.9437 H   0  0  0  0  0  0
   -3.3692   -4.3866    2.7301 H   0  0  0  0  0  0
   -4.3808   -0.7121    3.4004 H   0  0  0  0  0  0
   -4.0125   -2.0352    4.4856 H   0  0  0  0  0  0
   -5.4797   -3.2289    3.0359 H   0  0  0  0  0  0
   -5.1348   -2.1323    1.7021 H   0  0  0  0  0  0
   -2.0156    0.0382    3.9634 H   0  0  0  0  0  0
   -0.7019   -0.7288    3.1153 H   0  0  0  0  0  0
   -1.6939   -0.1561    0.9441 H   0  0  0  0  0  0
   -3.2435   -4.7799    0.4966 H   0  0  0  0  0  0
   -0.6328    3.3410    2.9423 H   0  0  0  0  0  0
   -1.3704    2.0629    3.8421 H   0  0  0  0  0  0
    0.3229    1.9218    3.4005 H   0  0  0  0  0  0
   -3.4652    2.3029    3.2493 H   0  0  0  0  0  0
   -3.6782   -0.3321   -0.1758 H   0  0  0  0  0  0
    0.2448    4.0449    0.3676 H   0  0  0  0  0  0
    1.1692    3.1828    1.5675 H   0  0  0  0  0  0
   -5.7925    3.0059    2.8436 H   0  0  0  0  0  0
   -6.0137    0.3783   -0.5620 H   0  0  0  0  0  0
   -7.0806    2.0470    0.9439 H   0  0  0  0  0  0
    1.0842    4.2132   -1.8391 H   0  0  0  0  0  0
    2.1093    1.4427    1.7063 H   0  0  0  0  0  0
    4.4459    0.6591   -0.9613 H   0  0  0  0  0  0
    4.4928    1.9030   -3.0881 H   0  0  0  0  0  0
    3.8978   -1.6567   -1.3086 H   0  0  0  0  0  0
    0.1984   -1.3810    0.8525 H   0  0  0  0  0  0
   -1.0093   -2.3952   -1.0614 H   0  0  0  0  0  0
   -0.9062   -3.2129   -3.1156 H   0  0  0  0  0  0
    2.4582   -3.3916   -4.5575 O   0  5  0  0  0  0
   -2.5170   -1.7554    3.0457 N   0  3  2  0  0  0
   -2.0927   -2.2787    3.7987 H   0  0  0  0  0  0
  1 30  1  0  0  0
  2  5  2  0  0  0
  2  6  2  0  0  0
  2 10  1  0  0  0
  2 32  1  0  0  0
  3 12  1  0  0  0
  3 49  1  0  0  0
  4 18  2  0  0  0
  7 37  1  0  0  0
  7 67  1  0  0  0
  8 38  2  0  0  0
  9 16  1  0  0  0
  9 18  1  0  0  0
  9 19  1  0  0  0
 10 27  1  0  0  0
 10 61  1  0  0  0
 11 12  1  0  0  0
 11 39  1  0  0  0
 11 40  1  0  0  0
 11 69  1  0  0  0
 12 14  1  0  0  0
 12 41  1  0  0  0
 13 14  1  0  0  0
 13 42  1  0  0  0
 13 43  1  0  0  0
 13 69  1  0  0  0
 14 44  1  0  0  0
 14 45  1  0  0  0
 15 16  1  0  0  0
 15 46  1  0  0  0
 15 47  1  0  0  0
 15 69  1  0  0  0
 16 17  1  0  0  0
 16 48  1  0  0  0
 17 20  2  0  0  0
 17 21  1  0  0  0
 18 22  1  0  0  0
 19 50  1  0  0  0
 19 51  1  0  0  0
 19 52  1  0  0  0
 20 23  1  0  0  0
 20 53  1  0  0  0
 21 24  2  0  0  0
 21 54  1  0  0  0
 22 25  1  0  0  0
 22 55  1  0  0  0
 22 56  1  0  0  0
 23 26  2  0  0  0
 23 57  1  0  0  0
 24 26  1  0  0  0
 24 58  1  0  0  0
 25 27  2  0  0  0
 25 28  1  0  0  0
 26 59  1  0  0  0
 27 29  1  0  0  0
 28 30  2  0  0  0
 28 60  1  0  0  0
 29 31  2  0  0  0
 29 62  1  0  0  0
 30 31  1  0  0  0
 31 63  1  0  0  0
 32 33  2  0  0  0
 32 34  1  0  0  0
 33 35  1  0  0  0
 33 64  1  0  0  0
 34 36  2  0  0  0
 34 65  1  0  0  0
 35 37  2  0  0  0
 35 38  1  0  0  0
 36 37  1  0  0  0
 36 66  1  0  0  0
 38 68  1  0  0  0
 69 70  1  0  0  0
M  CHG  2  68  -1  69   1
M  END
> <LID>
L023606

> <PC_CID>
44216268

> <Names>


> <CAS_Numbers>


$$$$
22992931
                    3D
 Structure written by MMmdl.
 64 66  0  0  1  0            999 V2000
   -7.2674    2.1827    0.8777 O   0  0  0  0  0  0
    4.0546   -0.7131   -1.7204 O   0  0  0  0  0  0
    5.2659    0.0054    0.7101 O   0  0  0  0  0  0
   -0.7909   -0.2759   -1.4860 N   0  0  0  0  0  0
    4.5864    2.1478    1.0096 N   0  0  0  0  0  0
   -4.8832    1.8231    0.4625 C   0  0  0  0  0  0
   -5.1023   -0.2293   -0.7461 C   0  0  0  0  0  0
   -6.3247    1.6858   -0.0482 C   0  0  1  0  0  0
   -6.4958    0.1894   -0.2885 C   0  0  0  0  0  0
   -2.8367    0.8175   -0.5475 C   0  0  0  0  0  0
   -2.0088   -0.4855   -0.6895 C   0  0  2  0  0  0
   -1.7847   -1.2740    0.6058 C   0  0  0  0  0  0
    0.4440    0.0053   -0.9852 C   0  0  0  0  0  0
   -0.9847   -0.5118   -2.9153 C   0  0  0  0  0  0
   -1.4821   -2.6501    0.5114 C   0  0  0  0  0  0
   -1.8614   -0.6764    1.8870 C   0  0  0  0  0  0
    1.6053   -0.5052   -1.6136 C   0  0  0  0  0  0
    0.6092    0.8092    0.1633 C   0  0  0  0  0  0
   -1.2647   -3.4187    1.6708 C   0  0  0  0  0  0
   -1.6439   -1.4451    3.0467 C   0  0  0  0  0  0
    2.9071   -0.2337   -1.1172 C   0  0  0  0  0  0
   -1.3467   -2.8164    2.9399 C   0  0  0  0  0  0
    1.8897    1.0884    0.6693 C   0  0  0  0  0  0
    3.0448    0.5781    0.0382 C   0  0  0  0  0  0
    4.3984    0.8750    0.6251 C   0  0  0  0  0  0
    5.8183    2.6763    1.5834 C   0  0  0  0  0  0
    3.9327   -1.5481   -2.8625 C   0  0  0  0  0  0
    6.8454    3.0230    0.4936 C   0  0  0  0  0  0
    8.1375    3.6098    1.0719 C   0  0  0  0  0  0
   -4.8494    1.8926    1.5508 H   0  0  0  0  0  0
   -4.4171    2.7249    0.0622 H   0  0  0  0  0  0
   -4.9803    0.0043   -1.8053 H   0  0  0  0  0  0
   -4.9259   -1.2972   -0.6128 H   0  0  0  0  0  0
   -6.4289    2.2202   -0.9938 H   0  0  0  0  0  0
   -7.2720   -0.0405   -1.0192 H   0  0  0  0  0  0
   -6.7444   -0.3225    0.6429 H   0  0  0  0  0  0
   -2.9754    1.2830   -1.5245 H   0  0  0  0  0  0
   -2.2982    1.5485    0.0537 H   0  0  0  0  0  0
   -2.6245   -1.1627   -1.2830 H   0  0  0  0  0  0
   -8.1344    2.0832    0.5136 H   0  0  0  0  0  0
   -0.8124   -1.5620   -3.1532 H   0  0  0  0  0  0
   -1.9965   -0.2540   -3.2300 H   0  0  0  0  0  0
   -0.2991    0.0938   -3.5094 H   0  0  0  0  0  0
   -1.4118   -3.1214   -0.4583 H   0  0  0  0  0  0
   -2.0766    0.3747    2.0018 H   0  0  0  0  0  0
    1.4838   -1.1281   -2.4854 H   0  0  0  0  0  0
   -0.2387    1.2306    0.6764 H   0  0  0  0  0  0
   -1.0329   -4.4702    1.5861 H   0  0  0  0  0  0
   -1.7017   -0.9810    4.0204 H   0  0  0  0  0  0
   -1.1784   -3.4048    3.8299 H   0  0  0  0  0  0
    1.9747    1.6968    1.5582 H   0  0  0  0  0  0
    3.8233    2.7967    0.8851 H   0  0  0  0  0  0
    5.5683    3.5699    2.1558 H   0  0  0  0  0  0
    6.2390    1.9613    2.2927 H   0  0  0  0  0  0
    3.4515   -1.0251   -3.6900 H   0  0  0  0  0  0
    3.3767   -2.4585   -2.6344 H   0  0  0  0  0  0
    4.9267   -1.8456   -3.1961 H   0  0  0  0  0  0
    7.0879    2.1303   -0.0843 H   0  0  0  0  0  0
    6.4099    3.7356   -0.2079 H   0  0  0  0  0  0
    8.8462    3.8458    0.2778 H   0  0  0  0  0  0
    7.9403    4.5280    1.6256 H   0  0  0  0  0  0
    8.6204    2.9055    1.7499 H   0  0  0  0  0  0
   -4.1695    0.5861    0.0633 N   0  3  1  0  0  0
   -4.0153    0.0724    0.9199 H   0  0  0  0  0  0
  1  8  1  0  0  0
  1 40  1  0  0  0
  2 21  1  0  0  0
  2 27  1  0  0  0
  3 25  2  0  0  0
  4 11  1  0  0  0
  4 13  1  0  0  0
  4 14  1  0  0  0
  5 25  1  0  0  0
  5 26  1  0  0  0
  5 52  1  0  0  0
  6  8  1  0  0  0
  6 30  1  0  0  0
  6 31  1  0  0  0
  6 63  1  0  0  0
  7  9  1  0  0  0
  7 32  1  0  0  0
  7 33  1  0  0  0
  7 63  1  0  0  0
  8  9  1  0  0  0
  8 34  1  0  0  0
  9 35  1  0  0  0
  9 36  1  0  0  0
 10 11  1  0  0  0
 10 37  1  0  0  0
 10 38  1  0  0  0
 10 63  1  0  0  0
 11 12  1  0  0  0
 11 39  1  0  0  0
 12 15  2  0  0  0
 12 16  1  0  0  0
 13 17  2  0  0  0
 13 18  1  0  0  0
 14 41  1  0  0  0
 14 42  1  0  0  0
 14 43  1  0  0  0
 15 19  1  0  0  0
 15 44  1  0  0  0
 16 20  2  0  0  0
 16 45  1  0  0  0
 17 21  1  0  0  0
 17 46  1  0  0  0
 18 23  2  0  0  0
 18 47  1  0  0  0
 19 22  2  0  0  0
 19 48  1  0  0  0
 20 22  1  0  0  0
 20 49  1  0  0  0
 21 24  2  0  0  0
 22 50  1  0  0  0
 23 24  1  0  0  0
 23 51  1  0  0  0
 24 25  1  0  0  0
 26 28  1  0  0  0
 26 53  1  0  0  0
 26 54  1  0  0  0
 27 55  1  0  0  0
 27 56  1  0  0  0
 27 57  1  0  0  0
 28 29  1  0  0  0
 28 58  1  0  0  0
 28 59  1  0  0  0
 29 60  1  0  0  0
 29 61  1  0  0  0
 29 62  1  0  0  0
 63 64  1  0  0  0
M  CHG  1  63   1
M  END
> <LID>
L017851

> <PC_CID>
22992931

> <Names>


> <CAS_Numbers>


$$$$
44214009
                    3D
 Structure written by MMmdl.
 66 68  0  0  1  0            999 V2000
   -6.9977   -4.1288    0.8753 Cl  0  0  0  0  0  0
   -5.5716   -6.6508   -0.4574 Cl  0  0  0  0  0  0
   -2.4136   -1.0990   -0.6105 O   0  0  0  0  0  0
    4.6632    0.1394   -2.0879 O   0  0  0  0  0  0
    7.8741   -0.7369    1.6608 O   0  0  0  0  0  0
   -1.6261    0.3401    0.9571 N   0  0  0  0  0  0
    3.3759    1.1175   -0.4765 N   0  0  0  0  0  0
   -3.1453    3.9488   -1.1605 C   0  0  0  0  0  0
   -1.6977    5.3059    0.1663 C   0  0  0  0  0  0
   -3.6115    5.4081   -1.2496 C   0  0  0  0  0  0
   -2.3950    6.2261   -0.8297 C   0  0  0  0  0  0
   -1.7719    2.8653    0.6371 C   0  0  0  0  0  0
   -1.5683    1.4684   -0.0070 C   0  0  1  0  0  0
   -0.3166    1.4241   -0.8840 C   0  0  0  0  0  0
   -2.0987   -0.8713    0.5599 C   0  0  0  0  0  0
    0.9697    1.2892   -0.3155 C   0  0  0  0  0  0
   -1.1673    0.5707    2.3367 C   0  0  0  0  0  0
   -0.4416    1.5247   -2.2861 C   0  0  0  0  0  0
    2.1201    1.2416   -1.1300 C   0  0  0  0  0  0
   -2.2602   -1.9934    1.6065 C   0  0  0  0  0  0
    0.7016    1.4976   -3.1055 C   0  0  0  0  0  0
    1.9798    1.3613   -2.5330 C   0  0  0  0  0  0
   -3.0945   -3.1578    1.0918 C   0  0  0  0  0  0
    4.5268    0.6119   -0.9590 C   0  0  0  0  0  0
    5.7119    0.6125    0.0141 C   0  0  1  0  0  0
   -4.5007   -3.1264    1.2031 C   0  0  0  0  0  0
   -2.4677   -4.2761    0.5034 C   0  0  0  0  0  0
    5.5825   -0.5372    1.0422 C   0  0  0  0  0  0
   -5.2778   -4.2009    0.7268 C   0  0  0  0  0  0
   -3.2420   -5.3514    0.0271 C   0  0  0  0  0  0
   -4.6462   -5.3179    0.1364 C   0  0  0  0  0  0
    6.7086   -0.5641    2.0806 C   0  0  0  0  0  0
   -3.9195    3.3300   -0.7042 H   0  0  0  0  0  0
   -2.9416    3.5432   -2.1519 H   0  0  0  0  0  0
   -0.6417    5.5470    0.2932 H   0  0  0  0  0  0
   -2.1833    5.3870    1.1406 H   0  0  0  0  0  0
   -4.4256    5.5763   -0.5431 H   0  0  0  0  0  0
   -3.9746    5.6749   -2.2427 H   0  0  0  0  0  0
   -1.7487    6.4026   -1.6908 H   0  0  0  0  0  0
   -2.6599    7.1935   -0.4016 H   0  0  0  0  0  0
   -0.9172    3.1171    1.2644 H   0  0  0  0  0  0
   -2.6525    2.8732    1.2816 H   0  0  0  0  0  0
   -2.4229    1.3502   -0.6757 H   0  0  0  0  0  0
    1.0817    1.2139    0.7552 H   0  0  0  0  0  0
   -0.6559   -0.2964    2.7551 H   0  0  0  0  0  0
   -0.4469    1.3811    2.4182 H   0  0  0  0  0  0
   -2.0145    0.8092    2.9807 H   0  0  0  0  0  0
   -1.4155    1.6235   -2.7429 H   0  0  0  0  0  0
   -1.2750   -2.3609    1.8960 H   0  0  0  0  0  0
   -2.7371   -1.6029    2.5063 H   0  0  0  0  0  0
    0.5985    1.5832   -4.1774 H   0  0  0  0  0  0
    2.8380    1.3621   -3.1874 H   0  0  0  0  0  0
    3.3828    1.3747    0.4999 H   0  0  0  0  0  0
    5.6996    1.5605    0.5547 H   0  0  0  0  0  0
   -4.9879   -2.2732    1.6522 H   0  0  0  0  0  0
   -1.3918   -4.3108    0.4116 H   0  0  0  0  0  0
    4.6275   -0.4688    1.5662 H   0  0  0  0  0  0
    5.5781   -1.5004    0.5296 H   0  0  0  0  0  0
   -2.7561   -6.2039   -0.4243 H   0  0  0  0  0  0
    7.7466    0.4653   -0.0381 H   0  0  0  0  0  0
    6.9957   -0.2400   -1.3249 H   0  0  0  0  0  0
    6.3820   -0.3943    3.2744 O   0  5  0  0  0  0
   -1.8862    3.9445   -0.3749 N   0  3  0  0  0  0
   -1.1376    3.8070   -1.0398 H   0  0  0  0  0  0
    6.9976    0.5635   -0.7130 N   0  3  0  0  0  0
    7.1209    1.4039   -1.2581 H   0  0  0  0  0  0
  1 29  1  0  0  0
  2 31  1  0  0  0
  3 15  2  0  0  0
  4 24  2  0  0  0
  5 32  2  0  0  0
  6 13  1  0  0  0
  6 15  1  0  0  0
  6 17  1  0  0  0
  7 19  1  0  0  0
  7 24  1  0  0  0
  7 53  1  0  0  0
  8 10  1  0  0  0
  8 33  1  0  0  0
  8 34  1  0  0  0
  8 63  1  0  0  0
  9 11  1  0  0  0
  9 35  1  0  0  0
  9 36  1  0  0  0
  9 63  1  0  0  0
 10 11  1  0  0  0
 10 37  1  0  0  0
 10 38  1  0  0  0
 11 39  1  0  0  0
 11 40  1  0  0  0
 12 13  1  0  0  0
 12 41  1  0  0  0
 12 42  1  0  0  0
 12 63  1  0  0  0
 13 14  1  0  0  0
 13 43  1  0  0  0
 14 16  2  0  0  0
 14 18  1  0  0  0
 15 20  1  0  0  0
 16 19  1  0  0  0
 16 44  1  0  0  0
 17 45  1  0  0  0
 17 46  1  0  0  0
 17 47  1  0  0  0
 18 21  2  0  0  0
 18 48  1  0  0  0
 19 22  2  0  0  0
 20 23  1  0  0  0
 20 49  1  0  0  0
 20 50  1  0  0  0
 21 22  1  0  0  0
 21 51  1  0  0  0
 22 52  1  0  0  0
 23 26  2  0  0  0
 23 27  1  0  0  0
 24 25  1  0  0  0
 25 28  1  0  0  0
 25 54  1  0  0  0
 25 65  1  0  0  0
 26 29  1  0  0  0
 26 55  1  0  0  0
 27 30  2  0  0  0
 27 56  1  0  0  0
 28 32  1  0  0  0
 28 57  1  0  0  0
 28 58  1  0  0  0
 29 31  2  0  0  0
 30 31  1  0  0  0
 30 59  1  0  0  0
 32 62  1  0  0  0
 60 65  1  0  0  0
 61 65  1  0  0  0
 63 64  1  0  0  0
 65 66  1  0  0  0
M  CHG  3  62  -1  63   1  65   1
M  END
> <LID>
L016567

> <PC_CID>
44214009

> <Names>


> <CAS_Numbers>


$$$$
15020440
                    3D
 Structure written by MMmdl.
 56 59  0  0  1  0            999 V2000
    6.7558   -0.8117    1.0521 Cl  0  0  0  0  0  0
    7.0388   -2.5941   -1.5771 Cl  0  0  0  0  0  0
    1.5049    0.3875   -0.4776 O   0  0  0  0  0  0
   -0.4326   -0.1168    0.5818 N   0  0  0  0  0  0
   -2.4277   -1.5892    0.9034 C   0  0  0  0  0  0
   -1.1810    0.9983   -0.0269 C   0  0  1  0  0  0
   -1.2149   -0.8902    1.5564 C   0  0  0  0  0  0
   -3.1807   -0.6321   -0.0320 C   0  0  0  0  0  0
   -2.5837    0.5779   -0.4821 C   0  0  0  0  0  0
   -1.1822    2.2042    0.9505 C   0  0  0  0  0  0
   -1.9391   -2.7996    0.0814 C   0  0  0  0  0  0
   -3.3367   -2.0974    2.0450 C   0  0  0  0  0  0
    0.8679   -0.3559    0.2718 C   0  0  0  0  0  0
   -4.4681   -0.9822   -0.5055 C   0  0  0  0  0  0
   -3.2819    1.3917   -1.4042 C   0  0  0  0  0  0
   -2.1040    4.4870    1.3537 C   0  0  0  0  0  0
   -0.7978    4.0882   -0.6533 C   0  0  0  0  0  0
   -5.1609   -0.1500   -1.4021 C   0  0  0  0  0  0
   -4.5653    1.0378   -1.8551 C   0  0  0  0  0  0
    1.5688   -1.5922    0.8694 C   0  0  0  0  0  0
   -1.6635    5.7757    0.7193 C   0  0  0  0  0  0
   -0.9480    5.5574   -0.3782 C   0  0  0  0  0  0
    2.9422   -1.8397    0.2624 C   0  0  0  0  0  0
    4.0937   -1.2841    0.8592 C   0  0  0  0  0  0
    3.0720   -2.6290   -0.8995 C   0  0  0  0  0  0
    5.3665   -1.5100    0.2986 C   0  0  0  0  0  0
    4.3429   -2.8566   -1.4612 C   0  0  0  0  0  0
    5.4919   -2.2992   -0.8661 C   0  0  0  0  0  0
   -0.6813    1.3082   -0.9461 H   0  0  0  0  0  0
   -1.5705   -0.1950    2.3165 H   0  0  0  0  0  0
   -0.6282   -1.6131    2.1212 H   0  0  0  0  0  0
   -1.8019    1.9640    1.8149 H   0  0  0  0  0  0
   -0.1777    2.3888    1.3354 H   0  0  0  0  0  0
   -2.7731   -3.3460   -0.3604 H   0  0  0  0  0  0
   -1.2850   -2.4919   -0.7351 H   0  0  0  0  0  0
   -1.3832   -3.5040    0.7010 H   0  0  0  0  0  0
   -4.1628   -2.7088    1.6835 H   0  0  0  0  0  0
   -2.7767   -2.7171    2.7463 H   0  0  0  0  0  0
   -3.7628   -1.2683    2.6111 H   0  0  0  0  0  0
   -4.9367   -1.9051   -0.2001 H   0  0  0  0  0  0
   -2.8342    2.2936   -1.7902 H   0  0  0  0  0  0
   -3.1814    4.4687    1.5199 H   0  0  0  0  0  0
   -1.5913    4.3600    2.3085 H   0  0  0  0  0  0
    0.2450    3.7981   -0.5160 H   0  0  0  0  0  0
   -1.1026    3.8426   -1.6704 H   0  0  0  0  0  0
   -6.1421   -0.4323   -1.7545 H   0  0  0  0  0  0
   -5.0872    1.6708   -2.5577 H   0  0  0  0  0  0
    1.6737   -1.4630    1.9473 H   0  0  0  0  0  0
    0.9576   -2.4801    0.7064 H   0  0  0  0  0  0
   -1.8954    6.7436    1.1394 H   0  0  0  0  0  0
   -0.5001    6.3178   -1.0013 H   0  0  0  0  0  0
    4.0021   -0.6778    1.7486 H   0  0  0  0  0  0
    2.1971   -3.0588   -1.3652 H   0  0  0  0  0  0
    4.4356   -3.4604   -2.3520 H   0  0  0  0  0  0
   -1.7010    3.4578    0.3539 N   0  3  0  0  0  0
   -2.5510    3.2190   -0.1373 H   0  0  0  0  0  0
  1 26  1  0  0  0
  2 28  1  0  0  0
  3 13  2  0  0  0
  4  6  1  0  0  0
  4  7  1  0  0  0
  4 13  1  0  0  0
  5  7  1  0  0  0
  5  8  1  0  0  0
  5 11  1  0  0  0
  5 12  1  0  0  0
  6  9  1  0  0  0
  6 10  1  0  0  0
  6 29  1  0  0  0
  7 30  1  0  0  0
  7 31  1  0  0  0
  8  9  1  0  0  0
  8 14  2  0  0  0
  9 15  2  0  0  0
 10 32  1  0  0  0
 10 33  1  0  0  0
 10 55  1  0  0  0
 11 34  1  0  0  0
 11 35  1  0  0  0
 11 36  1  0  0  0
 12 37  1  0  0  0
 12 38  1  0  0  0
 12 39  1  0  0  0
 13 20  1  0  0  0
 14 18  1  0  0  0
 14 40  1  0  0  0
 15 19  1  0  0  0
 15 41  1  0  0  0
 16 21  1  0  0  0
 16 42  1  0  0  0
 16 43  1  0  0  0
 16 55  1  0  0  0
 17 22  1  0  0  0
 17 44  1  0  0  0
 17 45  1  0  0  0
 17 55  1  0  0  0
 18 19  2  0  0  0
 18 46  1  0  0  0
 19 47  1  0  0  0
 20 23  1  0  0  0
 20 48  1  0  0  0
 20 49  1  0  0  0
 21 22  2  0  0  0
 21 50  1  0  0  0
 22 51  1  0  0  0
 23 24  2  0  0  0
 23 25  1  0  0  0
 24 26  1  0  0  0
 24 52  1  0  0  0
 25 27  2  0  0  0
 25 53  1  0  0  0
 26 28  2  0  0  0
 27 28  1  0  0  0
 27 54  1  0  0  0
 55 56  1  0  0  0
M  CHG  1  55   1
M  END
> <LID>
L005481

> <PC_CID>
15020440

> <Names>


> <CAS_Numbers>


$$$$
15020441
                    3D
 Structure written by MMmdl.
 47 50  0  0  1  0            999 V2000
   -5.8483    2.0536    1.9962 Cl  0  0  0  0  0  0
   -7.2301    1.1191   -0.7218 Cl  0  0  0  0  0  0
    4.0618   -3.1343   -1.2739 S   0  0  0  0  0  0
   -0.8747    0.8266   -0.2712 O   0  0  0  0  0  0
    0.6493   -0.6863    0.4507 N   0  0  0  0  0  0
    1.7912    0.0345   -0.1705 C   0  0  1  0  0  0
    2.4061    0.9972    0.8756 C   0  0  0  0  0  0
    2.8051   -0.9225   -0.7625 C   0  0  0  0  0  0
    1.0134   -1.8877    1.2362 C   0  0  0  0  0  0
    1.7545   -2.9219    0.3720 C   0  0  0  0  0  0
    2.7710   -2.2651   -0.4923 C   0  0  0  0  0  0
    2.9512    2.9221   -0.6323 C   0  0  0  0  0  0
    4.3080    2.5417    1.3444 C   0  0  0  0  0  0
   -0.6237   -0.2354    0.3031 C   0  0  0  0  0  0
    3.8690   -0.5870   -1.6577 C   0  0  0  0  0  0
    3.7915    4.1231   -0.3032 C   0  0  0  0  0  0
    4.5343    3.9149    0.7781 C   0  0  0  0  0  0
   -1.7899   -1.0750    0.8613 C   0  0  0  0  0  0
    4.6347   -1.6661   -2.0141 C   0  0  0  0  0  0
   -3.1533   -0.5222    0.4708 C   0  0  0  0  0  0
   -3.8109    0.4034    1.3085 C   0  0  0  0  0  0
   -3.7690   -0.9343   -0.7296 C   0  0  0  0  0  0
   -5.0722    0.9188    0.9497 C   0  0  0  0  0  0
   -5.0297   -0.4212   -1.0900 C   0  0  0  0  0  0
   -5.6842    0.5051   -0.2543 C   0  0  0  0  0  0
    1.4239    0.6368   -1.0027 H   0  0  0  0  0  0
    1.6304    1.6127    1.3347 H   0  0  0  0  0  0
    2.8512    0.4118    1.6812 H   0  0  0  0  0  0
    0.1835   -2.3732    1.7460 H   0  0  0  0  0  0
    1.6774   -1.5632    2.0377 H   0  0  0  0  0  0
    1.0385   -3.4480   -0.2601 H   0  0  0  0  0  0
    2.2241   -3.6745    1.0060 H   0  0  0  0  0  0
    1.8989    3.1596   -0.4694 H   0  0  0  0  0  0
    3.0895    2.6106   -1.6677 H   0  0  0  0  0  0
    5.2458    2.0012    1.4750 H   0  0  0  0  0  0
    3.8047    2.6257    2.3089 H   0  0  0  0  0  0
    4.0406    0.4184   -2.0106 H   0  0  0  0  0  0
    3.7576    5.0363   -0.8795 H   0  0  0  0  0  0
    5.2063    4.6302    1.2295 H   0  0  0  0  0  0
   -1.7135   -2.0992    0.4936 H   0  0  0  0  0  0
   -1.7224   -1.1124    1.9493 H   0  0  0  0  0  0
    5.4941   -1.6902   -2.6681 H   0  0  0  0  0  0
   -3.3454    0.7245    2.2290 H   0  0  0  0  0  0
   -3.2746   -1.6420   -1.3791 H   0  0  0  0  0  0
   -5.4950   -0.7393   -2.0114 H   0  0  0  0  0  0
    3.4526    1.8851    0.3159 N   0  3  0  0  0  0
    4.0808    1.2986   -0.2151 H   0  0  0  0  0  0
  1 23  1  0  0  0
  2 25  1  0  0  0
  3 11  1  0  0  0
  3 19  1  0  0  0
  4 14  2  0  0  0
  5  6  1  0  0  0
  5  9  1  0  0  0
  5 14  1  0  0  0
  6  7  1  0  0  0
  6  8  1  0  0  0
  6 26  1  0  0  0
  7 27  1  0  0  0
  7 28  1  0  0  0
  7 46  1  0  0  0
  8 11  2  0  0  0
  8 15  1  0  0  0
  9 10  1  0  0  0
  9 29  1  0  0  0
  9 30  1  0  0  0
 10 11  1  0  0  0
 10 31  1  0  0  0
 10 32  1  0  0  0
 12 16  1  0  0  0
 12 33  1  0  0  0
 12 34  1  0  0  0
 12 46  1  0  0  0
 13 17  1  0  0  0
 13 35  1  0  0  0
 13 36  1  0  0  0
 13 46  1  0  0  0
 14 18  1  0  0  0
 15 19  2  0  0  0
 15 37  1  0  0  0
 16 17  2  0  0  0
 16 38  1  0  0  0
 17 39  1  0  0  0
 18 20  1  0  0  0
 18 40  1  0  0  0
 18 41  1  0  0  0
 19 42  1  0  0  0
 20 21  2  0  0  0
 20 22  1  0  0  0
 21 23  1  0  0  0
 21 43  1  0  0  0
 22 24  2  0  0  0
 22 44  1  0  0  0
 23 25  2  0  0  0
 24 25  1  0  0  0
 24 45  1  0  0  0
 46 47  1  0  0  0
M  CHG  1  46   1
M  END
> <LID>
L005475

> <PC_CID>
15020441

> <Names>


> <CAS_Numbers>


$$$$
15020442
                    3D
 Structure written by MMmdl.
 53 56  0  0  1  0            999 V2000
   -6.1728    1.7093    1.9666 Cl  0  0  0  0  0  0
   -7.4048    0.6387   -0.7730 Cl  0  0  0  0  0  0
    4.1595   -2.4639   -1.3846 S   0  0  0  0  0  0
   -1.0608    1.0268   -0.2127 O   0  0  0  0  0  0
    0.6012   -0.3485    0.4779 N   0  0  0  0  0  0
    1.8896   -2.5074    0.3566 C   0  0  0  0  0  0
    1.6698    0.4786   -0.1336 C   0  0  2  0  0  0
    1.0861   -1.5199    1.2401 C   0  0  0  0  0  0
    2.8375   -1.7300   -0.5091 C   0  0  0  0  0  0
    2.7498   -0.3817   -0.7529 C   0  0  0  0  0  0
    2.2134    1.4704    0.9250 C   0  0  0  0  0  0
    0.9190   -3.3123   -0.5294 C   0  0  0  0  0  0
    2.6407   -3.4825    1.2852 C   0  0  0  0  0  0
    3.7550    0.0674   -1.6659 C   0  0  0  0  0  0
   -0.7088   -0.0158    0.3436 C   0  0  0  0  0  0
    2.5709    3.4657   -0.5471 C   0  0  0  0  0  0
    3.9841    3.1611    1.4030 C   0  0  0  0  0  0
    4.5941   -0.9311   -2.0820 C   0  0  0  0  0  0
   -1.7881   -0.9689    0.8943 C   0  0  0  0  0  0
    3.3109    4.7268   -0.2024 C   0  0  0  0  0  0
    4.0846    4.5601    0.8642 C   0  0  0  0  0  0
   -3.1961   -0.5628    0.4832 C   0  0  0  0  0  0
   -3.9611    0.2861    1.3107 C   0  0  0  0  0  0
   -3.7455   -1.0356   -0.7270 C   0  0  0  0  0  0
   -5.2643    0.6653    0.9321 C   0  0  0  0  0  0
   -5.0478   -0.6586   -1.1071 C   0  0  0  0  0  0
   -5.8099    0.1913   -0.2814 C   0  0  0  0  0  0
    1.2447    1.0638   -0.9503 H   0  0  0  0  0  0
    0.3097   -2.0554    1.7841 H   0  0  0  0  0  0
    1.7381   -1.1345    2.0244 H   0  0  0  0  0  0
    1.3935    2.0077    1.4049 H   0  0  0  0  0  0
    2.7185    0.9117    1.7138 H   0  0  0  0  0  0
    1.4528   -4.0308   -1.1524 H   0  0  0  0  0  0
    0.2009   -3.8715    0.0713 H   0  0  0  0  0  0
    0.3532   -2.6614   -1.1968 H   0  0  0  0  0  0
    3.1869   -4.2393    0.7215 H   0  0  0  0  0  0
    3.3617   -2.9577    1.9131 H   0  0  0  0  0  0
    1.9519   -4.0097    1.9462 H   0  0  0  0  0  0
    3.8292    1.0929   -1.9941 H   0  0  0  0  0  0
    1.5047    3.6092   -0.3654 H   0  0  0  0  0  0
    2.7198    3.1891   -1.5909 H   0  0  0  0  0  0
    4.9663    2.6999    1.5094 H   0  0  0  0  0  0
    3.4899    3.1817    2.3755 H   0  0  0  0  0  0
    5.4292   -0.8641   -2.7640 H   0  0  0  0  0  0
   -1.6049   -1.9820    0.5349 H   0  0  0  0  0  0
   -1.7287   -0.9935    1.9831 H   0  0  0  0  0  0
    3.1910    5.6456   -0.7579 H   0  0  0  0  0  0
    4.7000    5.3205    1.3226 H   0  0  0  0  0  0
   -3.5468    0.6529    2.2385 H   0  0  0  0  0  0
   -3.1685   -1.6856   -1.3686 H   0  0  0  0  0  0
   -5.4622   -1.0225   -2.0358 H   0  0  0  0  0  0
    3.1725    2.4555    0.3714 N   0  3  0  0  0  0
    3.8404    1.9359   -0.1805 H   0  0  0  0  0  0
  1 25  1  0  0  0
  2 27  1  0  0  0
  3  9  1  0  0  0
  3 18  1  0  0  0
  4 15  2  0  0  0
  5  7  1  0  0  0
  5  8  1  0  0  0
  5 15  1  0  0  0
  6  8  1  0  0  0
  6  9  1  0  0  0
  6 12  1  0  0  0
  6 13  1  0  0  0
  7 10  1  0  0  0
  7 11  1  0  0  0
  7 28  1  0  0  0
  8 29  1  0  0  0
  8 30  1  0  0  0
  9 10  2  0  0  0
 10 14  1  0  0  0
 11 31  1  0  0  0
 11 32  1  0  0  0
 11 52  1  0  0  0
 12 33  1  0  0  0
 12 34  1  0  0  0
 12 35  1  0  0  0
 13 36  1  0  0  0
 13 37  1  0  0  0
 13 38  1  0  0  0
 14 18  2  0  0  0
 14 39  1  0  0  0
 15 19  1  0  0  0
 16 20  1  0  0  0
 16 40  1  0  0  0
 16 41  1  0  0  0
 16 52  1  0  0  0
 17 21  1  0  0  0
 17 42  1  0  0  0
 17 43  1  0  0  0
 17 52  1  0  0  0
 18 44  1  0  0  0
 19 22  1  0  0  0
 19 45  1  0  0  0
 19 46  1  0  0  0
 20 21  2  0  0  0
 20 47  1  0  0  0
 21 48  1  0  0  0
 22 23  2  0  0  0
 22 24  1  0  0  0
 23 25  1  0  0  0
 23 49  1  0  0  0
 24 26  2  0  0  0
 24 50  1  0  0  0
 25 27  2  0  0  0
 26 27  1  0  0  0
 26 51  1  0  0  0
 52 53  1  0  0  0
M  CHG  1  52   1
M  END
> <LID>
L005482

> <PC_CID>
15020442

> <Names>


> <CAS_Numbers>


$$$$
44214646
                    3D
 Structure written by MMmdl.
 77 84  0  0  1  0            999 V2000
    1.9790    1.9924    2.1345 O   0  0  0  0  0  0
    0.9959   -1.0151    2.4906 O   0  0  0  0  0  0
    0.0643   -3.0833    0.3899 O   0  0  0  0  0  0
    3.6775    4.2466    3.2869 O   0  0  0  0  0  0
   -1.7822   -1.9817   -0.3024 N   0  0  0  0  0  0
    2.4293    0.3088   -1.1151 C   0  0  2  0  0  0
    2.1507    1.4264   -0.1096 C   0  0  2  0  0  0
    2.0390    0.8272    1.2900 C   0  0  2  0  0  0
    1.4437   -0.6159    1.2101 C   0  0  1  0  0  0
    3.0432    1.0830   -2.3314 C   0  0  1  0  0  0
    1.0733   -0.4723   -1.3054 C   0  0  0  0  0  0
    3.3649   -0.7825   -0.4958 C   0  0  0  0  0  0
    0.3574   -0.7154    0.0841 C   0  0  1  0  0  0
    0.9948    2.3360   -0.6560 C   0  0  0  0  0  0
    2.6727   -1.4784    0.7300 C   0  0  0  0  0  0
    3.2376    2.3597    0.2234 C   0  0  0  0  0  0
    4.3346    1.8921   -1.9301 C   0  0  0  0  0  0
    1.3897    2.9808   -2.0063 C   0  0  0  0  0  0
    4.2732    2.7216   -0.6315 C   0  0  0  0  0  0
    2.9710    2.7656    1.5277 C   0  0  0  0  0  0
    1.1659    1.4649   -3.9845 C   0  0  0  0  0  0
   -0.4714   -2.0278    0.0519 C   0  0  0  0  0  0
    1.1949    2.3047   -5.2453 C   0  0  0  0  0  0
    5.1302    3.7155   -0.1101 C   0  0  0  0  0  0
    3.8337    3.7686    2.0187 C   0  0  0  0  0  0
    2.1366    1.9722   -6.3798 C   0  0  0  0  0  0
    0.6535    1.7477   -6.5416 C   0  0  0  0  0  0
    4.8923    4.2472    1.1916 C   0  0  0  0  0  0
   -2.6529   -3.1676   -0.2269 C   0  0  0  0  0  0
   -2.4614   -0.7632   -0.7547 C   0  0  0  0  0  0
   -3.5371   -3.1701    1.0379 C   0  0  0  0  0  0
   -2.7521   -3.0440    2.3330 C   0  0  0  0  0  0
   -2.0540   -4.1570    2.8467 C   0  0  0  0  0  0
   -2.6995   -1.8105    3.0167 C   0  0  0  0  0  0
   -1.3039   -4.0361    4.0326 C   0  0  0  0  0  0
   -1.9504   -1.6907    4.2032 C   0  0  0  0  0  0
   -1.2517   -2.8030    4.7108 C   0  0  0  0  0  0
    3.0201    0.5263    1.6845 H   0  0  0  0  0  0
    3.3447    0.3679   -3.0978 H   0  0  0  0  0  0
    1.2731   -1.4187   -1.8118 H   0  0  0  0  0  0
    0.3767    0.0326   -1.9636 H   0  0  0  0  0  0
    3.6333   -1.5301   -1.2432 H   0  0  0  0  0  0
    4.3059   -0.3361   -0.1730 H   0  0  0  0  0  0
   -0.3359    0.0876    0.3163 H   0  0  0  0  0  0
    0.7518    3.1296    0.0519 H   0  0  0  0  0  0
    0.0474    1.8260   -0.7924 H   0  0  0  0  0  0
    2.3934   -2.4938    0.4608 H   0  0  0  0  0  0
    3.4012   -1.6070    1.5326 H   0  0  0  0  0  0
    4.6314    2.5508   -2.7470 H   0  0  0  0  0  0
    5.1618    1.1922   -1.8097 H   0  0  0  0  0  0
    0.5204    3.4436   -2.4753 H   0  0  0  0  0  0
    2.0765    3.8069   -1.8220 H   0  0  0  0  0  0
    0.1367    1.4258   -3.6265 H   0  0  0  0  0  0
    1.4475    0.4414   -4.2358 H   0  0  0  0  0  0
    0.6901   -1.9090    2.4371 H   0  0  0  0  0  0
    0.9933    3.3614   -5.0776 H   0  0  0  0  0  0
    5.9724    4.0630   -0.6902 H   0  0  0  0  0  0
    2.7686    1.0921   -6.2767 H   0  0  0  0  0  0
    2.5814    2.8034   -6.9234 H   0  0  0  0  0  0
    0.1104    2.4289   -7.1937 H   0  0  0  0  0  0
    0.3001    0.7183   -6.5456 H   0  0  0  0  0  0
    5.5602    5.0057    1.5729 H   0  0  0  0  0  0
   -3.2860   -3.2142   -1.1137 H   0  0  0  0  0  0
   -2.0718   -4.0904   -0.2590 H   0  0  0  0  0  0
    4.3185    4.8994    3.5221 H   0  0  0  0  0  0
   -3.4561   -0.9698   -1.1509 H   0  0  0  0  0  0
   -2.5888   -0.0659    0.0741 H   0  0  0  0  0  0
   -1.9039   -0.2658   -1.5481 H   0  0  0  0  0  0
   -4.2624   -2.3574    0.9811 H   0  0  0  0  0  0
   -4.1223   -4.0897    1.0724 H   0  0  0  0  0  0
   -2.0842   -5.1031    2.3263 H   0  0  0  0  0  0
   -3.2250   -0.9503    2.6287 H   0  0  0  0  0  0
   -0.7667   -4.8890    4.4206 H   0  0  0  0  0  0
   -1.9072   -0.7440    4.7211 H   0  0  0  0  0  0
   -0.6746   -2.7097    5.6190 H   0  0  0  0  0  0
    2.0647    2.0394   -2.9509 N   0  3  2  0  0  0
    2.6575    2.6385   -3.5080 H   0  0  0  0  0  0
  1  8  1  0  0  0
  1 20  1  0  0  0
  2  9  1  0  0  0
  2 55  1  0  0  0
  3 22  2  0  0  0
  4 25  1  0  0  0
  4 65  1  0  0  0
  5 22  1  0  0  0
  5 29  1  0  0  0
  5 30  1  0  0  0
  6  7  1  0  0  0
  6 10  1  0  0  0
  6 11  1  0  0  0
  6 12  1  0  0  0
  7  8  1  0  0  0
  7 14  1  0  0  0
  7 16  1  0  0  0
  8  9  1  0  0  0
  8 38  1  0  0  0
  9 13  1  0  0  0
  9 15  1  0  0  0
 10 17  1  0  0  0
 10 39  1  0  0  0
 10 76  1  0  0  0
 11 13  1  0  0  0
 11 40  1  0  0  0
 11 41  1  0  0  0
 12 15  1  0  0  0
 12 42  1  0  0  0
 12 43  1  0  0  0
 13 22  1  0  0  0
 13 44  1  0  0  0
 14 18  1  0  0  0
 14 45  1  0  0  0
 14 46  1  0  0  0
 15 47  1  0  0  0
 15 48  1  0  0  0
 16 19  2  0  0  0
 16 20  1  0  0  0
 17 19  1  0  0  0
 17 49  1  0  0  0
 17 50  1  0  0  0
 18 51  1  0  0  0
 18 52  1  0  0  0
 18 76  1  0  0  0
 19 24  1  0  0  0
 20 25  2  0  0  0
 21 23  1  0  0  0
 21 53  1  0  0  0
 21 54  1  0  0  0
 21 76  1  0  0  0
 23 26  1  0  0  0
 23 27  1  0  0  0
 23 56  1  0  0  0
 24 28  2  0  0  0
 24 57  1  0  0  0
 25 28  1  0  0  0
 26 27  1  0  0  0
 26 58  1  0  0  0
 26 59  1  0  0  0
 27 60  1  0  0  0
 27 61  1  0  0  0
 28 62  1  0  0  0
 29 31  1  0  0  0
 29 63  1  0  0  0
 29 64  1  0  0  0
 30 66  1  0  0  0
 30 67  1  0  0  0
 30 68  1  0  0  0
 31 32  1  0  0  0
 31 69  1  0  0  0
 31 70  1  0  0  0
 32 33  2  0  0  0
 32 34  1  0  0  0
 33 35  1  0  0  0
 33 71  1  0  0  0
 34 36  2  0  0  0
 34 72  1  0  0  0
 35 37  2  0  0  0
 35 73  1  0  0  0
 36 37  1  0  0  0
 36 74  1  0  0  0
 37 75  1  0  0  0
 76 77  1  0  0  0
M  CHG  1  76   1
M  END
> <LID>
L018283

> <PC_CID>
44214646

> <Names>


> <CAS_Numbers>


$$$$
44214649
                    3D
 Structure written by MMmdl.
 72 79  0  0  1  0            999 V2000
    5.1413   -1.8675   -2.1045 O   0  0  0  0  0  0
    7.4427   -2.8755   -0.5169 O   0  0  0  0  0  0
    6.9063   -2.9044    2.2906 O   0  0  0  0  0  0
    4.4329   -1.9879   -4.9682 O   0  0  0  0  0  0
    5.6010   -1.1616    2.8604 N   0  0  0  0  0  0
    5.2109    0.1933   -0.8560 C   0  0  2  0  0  0
    6.4412    1.0540   -0.4581 C   0  0  1  0  0  0
    5.5219   -1.3470   -0.8137 C   0  0  2  0  0  0
    5.9928    2.5314   -0.6443 C   0  0  1  0  0  0
    7.0340   -1.5224   -0.4532 C   0  0  1  0  0  0
    6.9120    0.6279    0.9658 C   0  0  0  0  0  0
    3.9595    0.5427   -0.0095 C   0  0  0  0  0  0
    7.2486   -0.9179    0.9898 C   0  0  1  0  0  0
    4.9502    0.4239   -2.3111 C   0  0  0  0  0  0
    7.6030    0.6482   -1.3686 C   0  0  0  0  0  0
    5.5466    2.8335   -2.1205 C   0  0  0  0  0  0
    3.6596    2.0504    0.0495 C   0  0  0  0  0  0
    7.8774   -0.6652   -1.3896 C   0  0  0  0  0  0
    4.9754    1.6735   -2.9508 C   0  0  0  0  0  0
    4.8473   -0.8107   -2.9184 C   0  0  0  0  0  0
    4.6482    4.2652    0.5931 C   0  0  0  0  0  0
    5.6866    4.8561    1.5300 C   0  0  0  0  0  0
    6.5582   -1.7372    2.1128 C   0  0  0  0  0  0
    4.6949    1.6561   -4.3336 C   0  0  0  0  0  0
    5.3883    6.1321    2.2831 C   0  0  0  0  0  0
    5.4881    4.8239    3.0281 C   0  0  0  0  0  0
    4.5656   -0.8069   -4.2995 C   0  0  0  0  0  0
    4.4563    0.4243   -4.9942 C   0  0  0  0  0  0
    4.8428   -1.8152    3.9267 C   0  0  0  0  0  0
    3.3693   -2.0565    3.5395 C   0  0  0  0  0  0
    3.1648   -2.8026    2.2282 C   0  0  0  0  0  0
    3.8090   -4.0371    1.9952 C   0  0  0  0  0  0
    2.3176   -2.2655    1.2353 C   0  0  0  0  0  0
    3.6327   -4.7103    0.7708 C   0  0  0  0  0  0
    2.1387   -2.9402    0.0120 C   0  0  0  0  0  0
    2.8003   -4.1605   -0.2226 C   0  0  0  0  0  0
    4.9019   -1.8542   -0.0761 H   0  0  0  0  0  0
    6.8357    3.1777   -0.4015 H   0  0  0  0  0  0
    6.1878    0.9334    1.7168 H   0  0  0  0  0  0
    7.8138    1.1871    1.2203 H   0  0  0  0  0  0
    3.0871    0.0128   -0.3929 H   0  0  0  0  0  0
    4.0960    0.1827    1.0088 H   0  0  0  0  0  0
    8.3138   -0.9994    1.2146 H   0  0  0  0  0  0
    8.1292    1.3777   -1.9665 H   0  0  0  0  0  0
    6.4298    3.1674   -2.6661 H   0  0  0  0  0  0
    4.8528    3.6708   -2.1775 H   0  0  0  0  0  0
    2.9246    2.2312    0.8348 H   0  0  0  0  0  0
    3.1996    2.3903   -0.8787 H   0  0  0  0  0  0
    8.6554   -1.1047   -1.9965 H   0  0  0  0  0  0
    3.6680    4.3924    1.0553 H   0  0  0  0  0  0
    4.6262    4.8437   -0.3294 H   0  0  0  0  0  0
    6.7127    4.7669    1.1798 H   0  0  0  0  0  0
    7.1092   -3.3248    0.2470 H   0  0  0  0  0  0
    4.7111    2.5752   -4.9007 H   0  0  0  0  0  0
    4.3986    6.5708    2.1715 H   0  0  0  0  0  0
    6.2017    6.8443    2.4077 H   0  0  0  0  0  0
    6.3683    4.6638    3.6476 H   0  0  0  0  0  0
    4.5648    4.3937    3.4113 H   0  0  0  0  0  0
    4.2549    0.4216   -6.0555 H   0  0  0  0  0  0
    5.3719   -0.1977    2.6725 H   0  0  0  0  0  0
    4.5558   -2.7360   -4.4033 H   0  0  0  0  0  0
    4.8854   -1.1820    4.8131 H   0  0  0  0  0  0
    5.3071   -2.7586    4.2176 H   0  0  0  0  0  0
    2.8713   -2.6153    4.3324 H   0  0  0  0  0  0
    2.8581   -1.0946    3.4832 H   0  0  0  0  0  0
    4.4523   -4.4669    2.7489 H   0  0  0  0  0  0
    1.8077   -1.3283    1.4029 H   0  0  0  0  0  0
    4.1375   -5.6486    0.5937 H   0  0  0  0  0  0
    1.4970   -2.5195   -0.7482 H   0  0  0  0  0  0
    2.6667   -4.6761   -1.1622 H   0  0  0  0  0  0
    4.8962    2.8237    0.3305 N   0  3  2  0  0  0
    5.2261    2.4671    1.2157 H   0  0  0  0  0  0
  1  8  1  0  0  0
  1 20  1  0  0  0
  2 10  1  0  0  0
  2 53  1  0  0  0
  3 23  2  0  0  0
  4 27  1  0  0  0
  4 61  1  0  0  0
  5 23  1  0  0  0
  5 29  1  0  0  0
  5 60  1  0  0  0
  6  7  1  0  0  0
  6  8  1  0  0  0
  6 12  1  0  0  0
  6 14  1  0  0  0
  7  9  1  0  0  0
  7 11  1  0  0  0
  7 15  1  0  0  0
  8 10  1  0  0  0
  8 37  1  0  0  0
  9 16  1  0  0  0
  9 38  1  0  0  0
  9 71  1  0  0  0
 10 13  1  0  0  0
 10 18  1  0  0  0
 11 13  1  0  0  0
 11 39  1  0  0  0
 11 40  1  0  0  0
 12 17  1  0  0  0
 12 41  1  0  0  0
 12 42  1  0  0  0
 13 23  1  0  0  0
 13 43  1  0  0  0
 14 19  2  0  0  0
 14 20  1  0  0  0
 15 18  2  0  0  0
 15 44  1  0  0  0
 16 19  1  0  0  0
 16 45  1  0  0  0
 16 46  1  0  0  0
 17 47  1  0  0  0
 17 48  1  0  0  0
 17 71  1  0  0  0
 18 49  1  0  0  0
 19 24  1  0  0  0
 20 27  2  0  0  0
 21 22  1  0  0  0
 21 50  1  0  0  0
 21 51  1  0  0  0
 21 71  1  0  0  0
 22 25  1  0  0  0
 22 26  1  0  0  0
 22 52  1  0  0  0
 24 28  2  0  0  0
 24 54  1  0  0  0
 25 26  1  0  0  0
 25 55  1  0  0  0
 25 56  1  0  0  0
 26 57  1  0  0  0
 26 58  1  0  0  0
 27 28  1  0  0  0
 28 59  1  0  0  0
 29 30  1  0  0  0
 29 62  1  0  0  0
 29 63  1  0  0  0
 30 31  1  0  0  0
 30 64  1  0  0  0
 30 65  1  0  0  0
 31 32  2  0  0  0
 31 33  1  0  0  0
 32 34  1  0  0  0
 32 66  1  0  0  0
 33 35  2  0  0  0
 33 67  1  0  0  0
 34 36  2  0  0  0
 34 68  1  0  0  0
 35 36  1  0  0  0
 35 69  1  0  0  0
 36 70  1  0  0  0
 71 72  1  0  0  0
M  CHG  1  71   1
M  END
> <LID>
L018286

> <PC_CID>
44214649

> <Names>


> <CAS_Numbers>


$$$$
44214648
                    3D
 Structure written by MMmdl.
 69 76  0  0  1  0            999 V2000
    2.7506    4.6149    6.8071 O   0  0  0  0  0  0
    1.6166    7.7031    7.0479 O   0  0  0  0  0  0
    0.8877    7.2762    4.3581 O   0  0  0  0  0  0
    2.3984    1.7250    5.9223 O   0  0  0  0  0  0
    2.3324    7.7264    2.6866 N   0  0  0  0  0  0
    4.7521    5.7274    6.4016 C   0  0  2  0  0  0
    5.4080    6.9453    5.7378 C   0  0  1  0  0  0
    3.2430    5.9028    6.3849 C   0  0  2  0  0  0
    6.8346    6.3937    5.4048 C   0  0  1  0  0  0
    2.8898    7.4338    6.4982 C   0  0  1  0  0  0
    4.5460    7.4829    4.5368 C   0  0  0  0  0  0
    5.3922    5.4550    7.8063 C   0  0  0  0  0  0
    3.1067    7.9899    5.0189 C   0  0  1  0  0  0
    4.7825    4.4417    5.6939 C   0  0  0  0  0  0
    5.2491    8.0534    6.7871 C   0  0  0  0  0  0
    6.7627    5.1639    4.4280 C   0  0  0  0  0  0
    6.8804    5.8692    7.9137 C   0  0  0  0  0  0
    3.9860    8.2166    7.2433 C   0  0  0  0  0  0
    5.7770    4.0413    4.8090 C   0  0  0  0  0  0
    3.6258    3.7828    6.1020 C   0  0  0  0  0  0
    8.9459    6.5702    6.7089 C   0  0  0  0  0  0
    9.9035    5.8107    7.6113 C   0  0  0  0  0  0
    2.0027    7.6427    3.9857 C   0  0  0  0  0  0
    5.6160    2.7263    4.3196 C   0  0  0  0  0  0
   10.7257    4.6602    7.0779 C   0  0  0  0  0  0
   11.3963    5.9648    7.4306 C   0  0  0  0  0  0
    3.4967    2.4685    5.6066 C   0  0  0  0  0  0
    4.4996    1.9441    4.7394 C   0  0  0  0  0  0
    1.5174    7.2010    1.5962 C   0  0  0  0  0  0
    1.4885    5.6776    1.5500 C   0  0  0  0  0  0
    2.6588    4.9220    1.7915 C   0  0  0  0  0  0
    0.2787    5.0073    1.2701 C   0  0  0  0  0  0
    2.6141    3.5148    1.7719 C   0  0  0  0  0  0
    0.2350    3.5994    1.2476 C   0  0  0  0  0  0
    1.4015    2.8528    1.5018 C   0  0  0  0  0  0
    2.8559    5.7476    5.3756 H   0  0  0  0  0  0
    7.3870    7.1915    4.9063 H   0  0  0  0  0  0
    5.0716    8.3017    4.0439 H   0  0  0  0  0  0
    4.4597    6.6930    3.7911 H   0  0  0  0  0  0
    5.2931    4.4070    8.0950 H   0  0  0  0  0  0
    4.8398    5.9864    8.5820 H   0  0  0  0  0  0
    3.1149    9.0812    5.0587 H   0  0  0  0  0  0
    6.1021    8.5943    7.1694 H   0  0  0  0  0  0
    7.7539    4.7262    4.3022 H   0  0  0  0  0  0
    6.4741    5.5139    3.4366 H   0  0  0  0  0  0
    6.9550    6.8379    8.4084 H   0  0  0  0  0  0
    7.3854    5.1694    8.5792 H   0  0  0  0  0  0
    3.7228    8.9298    8.0107 H   0  0  0  0  0  0
    8.8429    7.5943    7.0703 H   0  0  0  0  0  0
    9.3971    6.6290    5.7170 H   0  0  0  0  0  0
    9.5836    5.7390    8.6487 H   0  0  0  0  0  0
    0.9625    7.4324    6.4183 H   0  0  0  0  0  0
    6.3231    2.3212    3.6107 H   0  0  0  0  0  0
   10.6319    4.4138    6.0219 H   0  0  0  0  0  0
   12.0120    5.9862    8.3277 H   0  0  0  0  0  0
   11.7502    6.5844    6.6087 H   0  0  0  0  0  0
   10.8925    3.8132    7.7405 H   0  0  0  0  0  0
    4.3869    0.9425    4.3509 H   0  0  0  0  0  0
    3.2532    8.0640    2.4479 H   0  0  0  0  0  0
    1.7925    2.1928    6.4770 H   0  0  0  0  0  0
    0.5035    7.5979    1.6719 H   0  0  0  0  0  0
    1.9250    7.5667    0.6536 H   0  0  0  0  0  0
    3.5964    5.4158    1.9976 H   0  0  0  0  0  0
   -0.6236    5.5703    1.0807 H   0  0  0  0  0  0
    3.5101    2.9435    1.9647 H   0  0  0  0  0  0
   -0.6952    3.0920    1.0384 H   0  0  0  0  0  0
    1.3667    1.7734    1.4879 H   0  0  0  0  0  0
    7.6081    5.9296    6.6093 N   0  3  2  0  0  0
    7.8034    4.9618    6.3950 H   0  0  0  0  0  0
  1  8  1  0  0  0
  1 20  1  0  0  0
  2 10  1  0  0  0
  2 52  1  0  0  0
  3 23  2  0  0  0
  4 27  1  0  0  0
  4 60  1  0  0  0
  5 23  1  0  0  0
  5 29  1  0  0  0
  5 59  1  0  0  0
  6  7  1  0  0  0
  6  8  1  0  0  0
  6 12  1  0  0  0
  6 14  1  0  0  0
  7  9  1  0  0  0
  7 11  1  0  0  0
  7 15  1  0  0  0
  8 10  1  0  0  0
  8 36  1  0  0  0
  9 16  1  0  0  0
  9 37  1  0  0  0
  9 68  1  0  0  0
 10 13  1  0  0  0
 10 18  1  0  0  0
 11 13  1  0  0  0
 11 38  1  0  0  0
 11 39  1  0  0  0
 12 17  1  0  0  0
 12 40  1  0  0  0
 12 41  1  0  0  0
 13 23  1  0  0  0
 13 42  1  0  0  0
 14 19  2  0  0  0
 14 20  1  0  0  0
 15 18  2  0  0  0
 15 43  1  0  0  0
 16 19  1  0  0  0
 16 44  1  0  0  0
 16 45  1  0  0  0
 17 46  1  0  0  0
 17 47  1  0  0  0
 17 68  1  0  0  0
 18 48  1  0  0  0
 19 24  1  0  0  0
 20 27  2  0  0  0
 21 22  1  0  0  0
 21 49  1  0  0  0
 21 50  1  0  0  0
 21 68  1  0  0  0
 22 25  1  0  0  0
 22 26  1  0  0  0
 22 51  1  0  0  0
 24 28  2  0  0  0
 24 53  1  0  0  0
 25 26  1  0  0  0
 25 54  1  0  0  0
 25 57  1  0  0  0
 26 55  1  0  0  0
 26 56  1  0  0  0
 27 28  1  0  0  0
 28 58  1  0  0  0
 29 30  1  0  0  0
 29 61  1  0  0  0
 29 62  1  0  0  0
 30 31  2  0  0  0
 30 32  1  0  0  0
 31 33  1  0  0  0
 31 63  1  0  0  0
 32 34  2  0  0  0
 32 64  1  0  0  0
 33 35  2  0  0  0
 33 65  1  0  0  0
 34 35  1  0  0  0
 34 66  1  0  0  0
 35 67  1  0  0  0
 68 69  1  0  0  0
M  CHG  1  68   1
M  END
> <LID>
L018285

> <PC_CID>
44214648

> <Names>


> <CAS_Numbers>


$$$$
44214509
                    3D
 Structure written by MMmdl.
 72 78  0  0  1  0            999 V2000
    8.9041    1.4174    1.2497 O   0  0  0  0  0  0
   12.3531    2.0400   -0.4066 O   0  0  0  0  0  0
   12.3982    6.0598    0.6963 O   0  5  0  0  0  0
    6.9938    0.2073   -0.6691 O   0  0  0  0  0  0
   10.9041   -1.5350    2.3939 O   0  0  0  0  0  0
   11.6182    5.7304   -0.3557 N   0  3  2  0  0  0
   10.8234    0.5023    3.4388 N   0  0  0  0  0  0
   10.4076    3.1844    0.6324 C   0  0  2  0  0  0
   11.8954    3.2322    0.2305 C   0  0  2  0  0  0
   12.0121    4.3252   -0.8901 C   0  0  1  0  0  0
   10.0175    2.1780    1.7614 C   0  0  2  0  0  0
    9.9037    4.5887    1.0711 C   0  0  0  0  0  0
    9.6346    2.6891   -0.5384 C   0  0  0  0  0  0
   12.7600    3.2724    1.5124 C   0  0  0  0  0  0
   10.1545    5.7184    0.0617 C   0  0  0  0  0  0
   11.1875    1.2710    2.2259 C   0  0  1  0  0  0
   11.1268    3.9001   -2.1319 C   0  0  0  0  0  0
   12.5512    2.0174    2.4060 C   0  0  0  0  0  0
   11.8207    6.8007   -1.4410 C   0  0  0  0  0  0
    9.8522    3.0746   -1.8710 C   0  0  0  0  0  0
   11.6362    8.2172   -0.9056 C   0  0  0  0  0  0
    8.7614    1.7251   -0.0762 C   0  0  0  0  0  0
   11.5708    9.3735   -1.8781 C   0  0  0  0  0  0
   10.3406    8.9735   -1.1059 C   0  0  0  0  0  0
    8.9862    2.4870   -2.8173 C   0  0  0  0  0  0
    7.9022    1.1558   -1.0397 C   0  0  0  0  0  0
    8.0014    1.5558   -2.3979 C   0  0  0  0  0  0
   10.5800    1.2940    4.6601 C   0  0  0  0  0  0
   10.7055   -0.8547    3.4004 C   0  0  0  0  0  0
   10.3206   -1.5345    4.6243 C   0  0  0  0  0  0
    9.9541   -2.1196    5.6319 C   0  0  0  0  0  0
    9.5158   -2.7994    6.8387 C   0  0  0  0  0  0
    9.2779   -4.1895    6.8202 C   0  0  0  0  0  0
    9.3276   -2.0701    8.0308 C   0  0  0  0  0  0
    8.8514   -4.8512    7.9907 C   0  0  0  0  0  0
    8.9038   -2.7300    9.2007 C   0  0  0  0  0  0
    8.6666   -4.1182    9.1813 C   0  0  0  0  0  0
    8.5993   -6.3447    7.9698 C   0  0  0  0  0  0
   13.0521    4.4323   -1.2027 H   0  0  0  0  0  0
    9.6389    2.7302    2.6207 H   0  0  0  0  0  0
   10.3726    4.8678    2.0149 H   0  0  0  0  0  0
    8.8343    4.5483    1.2832 H   0  0  0  0  0  0
   12.5083    4.1373    2.1218 H   0  0  0  0  0  0
   13.8165    3.3859    1.2660 H   0  0  0  0  0  0
    9.5409    5.6155   -0.8330 H   0  0  0  0  0  0
    9.9312    6.6855    0.5124 H   0  0  0  0  0  0
   11.3471    0.5863    1.3932 H   0  0  0  0  0  0
   11.7487    3.2449   -2.7427 H   0  0  0  0  0  0
   10.8777    4.7060   -2.8130 H   0  0  0  0  0  0
   12.7153    2.3178    3.4401 H   0  0  0  0  0  0
   13.3481    1.3019    2.1996 H   0  0  0  0  0  0
   12.8371    6.6856   -1.8194 H   0  0  0  0  0  0
   11.1158    6.6453   -2.2528 H   0  0  0  0  0  0
   12.1914    8.4349    0.0047 H   0  0  0  0  0  0
   13.2759    2.1298   -0.5884 H   0  0  0  0  0  0
   11.5906    9.1450   -2.9420 H   0  0  0  0  0  0
   12.0650   10.2996   -1.5914 H   0  0  0  0  0  0
   10.0149    9.6287   -0.3006 H   0  0  0  0  0  0
    9.5419    8.4777   -1.6542 H   0  0  0  0  0  0
    9.0989    2.7148   -3.8670 H   0  0  0  0  0  0
    7.3517    1.1097   -3.1364 H   0  0  0  0  0  0
   11.2484    0.9835    5.4645 H   0  0  0  0  0  0
   10.7400    2.3621    4.5172 H   0  0  0  0  0  0
    9.5504    1.1724    5.0000 H   0  0  0  0  0  0
    6.4816   -0.1204   -1.3918 H   0  0  0  0  0  0
    9.4224   -4.7515    5.9083 H   0  0  0  0  0  0
    9.5073   -1.0047    8.0546 H   0  0  0  0  0  0
    8.7609   -2.1710   10.1137 H   0  0  0  0  0  0
    8.3430   -4.6178   10.0828 H   0  0  0  0  0  0
    7.8453   -6.6231    8.7066 H   0  0  0  0  0  0
    8.2465   -6.6654    6.9891 H   0  0  0  0  0  0
    9.5188   -6.8842    8.1979 H   0  0  0  0  0  0
  1 11  1  0  0  0
  1 22  1  0  0  0
  2  9  1  0  0  0
  2 55  1  0  0  0
  3  6  1  0  0  0
  4 26  1  0  0  0
  4 65  1  0  0  0
  5 29  2  0  0  0
  6 10  1  0  0  0
  6 15  1  0  0  0
  6 19  1  0  0  0
  7 16  1  0  0  0
  7 28  1  0  0  0
  7 29  1  0  0  0
  8  9  1  0  0  0
  8 11  1  0  0  0
  8 12  1  0  0  0
  8 13  1  0  0  0
  9 10  1  0  0  0
  9 14  1  0  0  0
 10 17  1  0  0  0
 10 39  1  0  0  0
 11 16  1  0  0  0
 11 40  1  0  0  0
 12 15  1  0  0  0
 12 41  1  0  0  0
 12 42  1  0  0  0
 13 20  2  0  0  0
 13 22  1  0  0  0
 14 18  1  0  0  0
 14 43  1  0  0  0
 14 44  1  0  0  0
 15 45  1  0  0  0
 15 46  1  0  0  0
 16 18  1  0  0  0
 16 47  1  0  0  0
 17 20  1  0  0  0
 17 48  1  0  0  0
 17 49  1  0  0  0
 18 50  1  0  0  0
 18 51  1  0  0  0
 19 21  1  0  0  0
 19 52  1  0  0  0
 19 53  1  0  0  0
 20 25  1  0  0  0
 21 23  1  0  0  0
 21 24  1  0  0  0
 21 54  1  0  0  0
 22 26  2  0  0  0
 23 24  1  0  0  0
 23 56  1  0  0  0
 23 57  1  0  0  0
 24 58  1  0  0  0
 24 59  1  0  0  0
 25 27  2  0  0  0
 25 60  1  0  0  0
 26 27  1  0  0  0
 27 61  1  0  0  0
 28 62  1  0  0  0
 28 63  1  0  0  0
 28 64  1  0  0  0
 29 30  1  0  0  0
 30 31  3  0  0  0
 31 32  1  0  0  0
 32 33  1  0  0  0
 32 34  2  0  0  0
 33 35  2  0  0  0
 33 66  1  0  0  0
 34 36  1  0  0  0
 34 67  1  0  0  0
 35 37  1  0  0  0
 35 38  1  0  0  0
 36 37  2  0  0  0
 36 68  1  0  0  0
 37 69  1  0  0  0
 38 70  1  0  0  0
 38 71  1  0  0  0
 38 72  1  0  0  0
M  CHG  2   3  -1   6   1
M  END
> <LID>
L017896

> <PC_CID>
44214509

> <Names>


> <CAS_Numbers>


$$$$
15462304
                    3D
 Structure written by MMmdl.
 36 38  0  0  1  0            999 V2000
    5.2186    0.0465   -1.5170 Cl  0  0  0  0  0  0
   -1.8588    2.9451    0.0970 O   0  0  0  0  0  0
   -1.5756    0.9812   -1.0374 O   0  0  0  0  0  0
   -1.2503    1.0460    1.3543 C   0  0  2  0  0  0
    0.0246    0.2348    1.5339 C   0  0  0  0  0  0
   -1.0709   -0.4490    1.5185 C   0  0  0  0  0  0
    1.2705    0.1568    0.7442 C   0  0  0  0  0  0
   -1.4578   -1.6768    0.7992 C   0  0  0  0  0  0
   -1.5775    1.6359    0.0066 C   0  0  0  0  0  0
    1.3318   -0.3936   -0.5565 C   0  0  0  0  0  0
    2.4402    0.6854    1.3281 C   0  0  0  0  0  0
   -0.5297   -2.7037    0.5173 C   0  0  0  0  0  0
   -2.8083   -1.8361    0.4250 C   0  0  0  0  0  0
    2.5545   -0.4287   -1.2545 C   0  0  0  0  0  0
    3.6631    0.6493    0.6300 C   0  0  0  0  0  0
   -0.9458   -3.8659   -0.1609 C   0  0  0  0  0  0
   -3.2231   -2.9984   -0.2537 C   0  0  0  0  0  0
   -2.1846    3.6757   -1.0740 C   0  0  0  0  0  0
    3.7212    0.0901   -0.6610 C   0  0  0  0  0  0
   -2.2913   -4.0119   -0.5499 C   0  0  0  0  0  0
   -2.4562    5.1352   -0.7013 C   0  0  0  0  0  0
   -1.5852    1.6430    2.2001 H   0  0  0  0  0  0
    0.4458   -0.7757   -1.0395 H   0  0  0  0  0  0
    2.4049    1.1174    2.3178 H   0  0  0  0  0  0
    0.5007   -2.6137    0.8274 H   0  0  0  0  0  0
   -3.5286   -1.0625    0.6487 H   0  0  0  0  0  0
    2.5941   -0.8496   -2.2484 H   0  0  0  0  0  0
    4.5556    1.0519    1.0860 H   0  0  0  0  0  0
   -0.2331   -4.6478   -0.3782 H   0  0  0  0  0  0
   -4.2565   -3.1127   -0.5463 H   0  0  0  0  0  0
   -1.3614    3.6185   -1.7876 H   0  0  0  0  0  0
   -3.0646    3.2405   -1.5496 H   0  0  0  0  0  0
   -2.6099   -4.9037   -1.0694 H   0  0  0  0  0  0
   -2.7095    5.7201   -1.5855 H   0  0  0  0  0  0
   -3.2872    5.2127    0.0002 H   0  0  0  0  0  0
   -1.5808    5.5912   -0.2382 H   0  0  0  0  0  0
  1 19  1  0  0  0
  2  9  1  0  0  0
  2 18  1  0  0  0
  3  9  2  0  0  0
  4  5  1  0  0  0
  4  6  1  0  0  0
  4  9  1  0  0  0
  4 22  1  0  0  0
  5  6  2  0  0  0
  5  7  1  0  0  0
  6  8  1  0  0  0
  7 10  2  0  0  0
  7 11  1  0  0  0
  8 12  2  0  0  0
  8 13  1  0  0  0
 10 14  1  0  0  0
 10 23  1  0  0  0
 11 15  2  0  0  0
 11 24  1  0  0  0
 12 16  1  0  0  0
 12 25  1  0  0  0
 13 17  2  0  0  0
 13 26  1  0  0  0
 14 19  2  0  0  0
 14 27  1  0  0  0
 15 19  1  0  0  0
 15 28  1  0  0  0
 16 20  2  0  0  0
 16 29  1  0  0  0
 17 20  1  0  0  0
 17 30  1  0  0  0
 18 21  1  0  0  0
 18 31  1  0  0  0
 18 32  1  0  0  0
 20 33  1  0  0  0
 21 34  1  0  0  0
 21 35  1  0  0  0
 21 36  1  0  0  0
M  END
> <LID>
L017500

> <PC_CID>
15462304

> <Names>


> <CAS_Numbers>


$$$$
18914984
                    3D
 Structure written by MMmdl.
 55 58  0  0  1  0            999 V2000
    2.1518    1.5965   -3.5166 Cl  0  0  0  0  0  0
    4.8451   -0.0655   -3.9042 Cl  0  0  0  0  0  0
   -1.9374    2.0377    3.4935 S   0  0  0  0  0  0
   -0.6889   -1.6713    0.4899 O   0  0  0  0  0  0
    5.0214   -3.0024    0.5694 O   0  0  0  0  0  0
   -0.6987    0.5392    1.0341 N   0  0  0  0  0  0
   -2.1690    0.7673    1.0341 C   0  0  1  0  0  0
   -3.0096   -0.1256    0.0803 C   0  0  0  0  0  0
   -4.5893    1.4933   -1.0039 C   0  0  0  0  0  0
   -5.3827   -0.7454   -0.3574 C   0  0  0  0  0  0
   -2.6545    0.6946    2.4980 C   0  0  0  0  0  0
    1.4429   -0.8253    1.1176 C   0  0  1  0  0  0
   -4.4970    1.0650   -2.4826 C   0  0  0  0  0  0
   -5.2743   -1.2365   -1.8127 C   0  0  0  0  0  0
   -0.0010    1.7389    1.5328 C   0  0  0  0  0  0
   -5.4767   -0.0747   -2.7949 C   0  0  0  0  0  0
   -0.0802   -0.6658    0.8529 C   0  0  0  0  0  0
    1.7327   -2.1836    1.7927 C   0  0  0  0  0  0
   -0.1832    1.8439    3.0564 C   0  0  0  0  0  0
    2.2965   -0.6326   -0.1508 C   0  0  0  0  0  0
    3.2313   -2.3978    2.0170 C   0  0  0  0  0  0
    3.5143   -1.3513   -0.3196 C   0  0  0  0  0  0
    4.0146   -2.3089    0.7088 C   0  0  0  0  0  0
    1.9088    0.2865   -1.1586 C   0  0  0  0  0  0
    4.2824   -1.1652   -1.4921 C   0  0  0  0  0  0
    2.6824    0.4696   -2.3192 C   0  0  0  0  0  0
    3.8728   -0.2631   -2.4898 C   0  0  0  0  0  0
   -2.3327    1.7879    0.6911 H   0  0  0  0  0  0
   -2.5337   -0.2070   -0.8969 H   0  0  0  0  0  0
   -3.0491   -1.1332    0.4937 H   0  0  0  0  0  0
   -3.8690    2.2837   -0.7970 H   0  0  0  0  0  0
   -5.5715    1.9311   -0.8207 H   0  0  0  0  0  0
   -6.3904   -0.3681   -0.1776 H   0  0  0  0  0  0
   -5.2453   -1.5736    0.3390 H   0  0  0  0  0  0
   -3.7390    0.7818    2.5594 H   0  0  0  0  0  0
   -2.3888   -0.2648    2.9439 H   0  0  0  0  0  0
    1.7846   -0.0905    1.8428 H   0  0  0  0  0  0
   -4.7097    1.9187   -3.1268 H   0  0  0  0  0  0
   -3.4808    0.7532   -2.7246 H   0  0  0  0  0  0
   -4.3011   -1.6995   -1.9808 H   0  0  0  0  0  0
   -6.0186   -2.0114   -1.9988 H   0  0  0  0  0  0
   -0.4020    2.6361    1.0595 H   0  0  0  0  0  0
    1.0524    1.7720    1.2615 H   0  0  0  0  0  0
   -6.5015    0.2921   -2.7230 H   0  0  0  0  0  0
   -5.3406   -0.4189   -3.8206 H   0  0  0  0  0  0
    1.3599   -3.0076    1.1813 H   0  0  0  0  0  0
    1.2074   -2.2486    2.7465 H   0  0  0  0  0  0
    0.2097    0.9551    3.5511 H   0  0  0  0  0  0
    0.3703    2.6975    3.4482 H   0  0  0  0  0  0
    3.4054   -3.3725    2.4735 H   0  0  0  0  0  0
    3.6202   -1.6484    2.7066 H   0  0  0  0  0  0
    1.0073    0.8714   -1.0632 H   0  0  0  0  0  0
    5.2038   -1.7116   -1.6358 H   0  0  0  0  0  0
   -4.4147    0.3468   -0.0679 N   0  3  0  0  0  0
   -4.6715    0.6898    0.8467 H   0  0  0  0  0  0
  1 26  1  0  0  0
  2 27  1  0  0  0
  3 11  1  0  0  0
  3 19  1  0  0  0
  4 17  2  0  0  0
  5 23  2  0  0  0
  6  7  1  0  0  0
  6 15  1  0  0  0
  6 17  1  0  0  0
  7  8  1  0  0  0
  7 11  1  0  0  0
  7 28  1  0  0  0
  8 29  1  0  0  0
  8 30  1  0  0  0
  8 54  1  0  0  0
  9 13  1  0  0  0
  9 31  1  0  0  0
  9 32  1  0  0  0
  9 54  1  0  0  0
 10 14  1  0  0  0
 10 33  1  0  0  0
 10 34  1  0  0  0
 10 54  1  0  0  0
 11 35  1  0  0  0
 11 36  1  0  0  0
 12 17  1  0  0  0
 12 18  1  0  0  0
 12 20  1  0  0  0
 12 37  1  0  0  0
 13 16  1  0  0  0
 13 38  1  0  0  0
 13 39  1  0  0  0
 14 16  1  0  0  0
 14 40  1  0  0  0
 14 41  1  0  0  0
 15 19  1  0  0  0
 15 42  1  0  0  0
 15 43  1  0  0  0
 16 44  1  0  0  0
 16 45  1  0  0  0
 18 21  1  0  0  0
 18 46  1  0  0  0
 18 47  1  0  0  0
 19 48  1  0  0  0
 19 49  1  0  0  0
 20 22  1  0  0  0
 20 24  2  0  0  0
 21 23  1  0  0  0
 21 50  1  0  0  0
 21 51  1  0  0  0
 22 23  1  0  0  0
 22 25  2  0  0  0
 24 26  1  0  0  0
 24 52  1  0  0  0
 25 27  1  0  0  0
 25 53  1  0  0  0
 26 27  2  0  0  0
 54 55  1  0  0  0
M  CHG  1  54   1
M  END
> <LID>
L004497

> <PC_CID>
18914984

> <Names>


> <CAS_Numbers>


$$$$
9984678
                    3D
 Structure written by MMmdl.
 77 81  0  0  1  0            999 V2000
    2.9143    1.4874    1.8554 O   0  0  0  0  0  0
    5.4798    2.8910    0.3526 O   0  0  0  0  0  0
    7.4868    1.7727    0.3143 O   0  0  0  0  0  0
    3.7829   -1.6372    0.4052 N   0  0  0  0  0  0
    4.7549    0.2216    1.4180 N   0  0  0  0  0  0
   -3.6797    3.4630    0.7065 N   0  0  0  0  0  0
    2.7021   -0.6867    0.7442 C   0  0  0  0  0  0
    1.6863   -1.2902    1.7582 C   0  0  0  0  0  0
    1.9735   -0.1557   -0.5255 C   0  0  0  0  0  0
    0.4252   -0.4276    1.9641 C   0  0  0  0  0  0
    0.7006    0.6582   -0.2197 C   0  0  0  0  0  0
    3.4505    0.4728    1.4102 C   0  0  0  0  0  0
    5.0658   -1.0638    0.8311 C   0  0  0  0  0  0
   -1.5318    0.5845    0.8616 C   0  0  0  0  0  0
    3.7090   -2.8618   -0.2058 C   0  0  0  0  0  0
   -2.4507    0.4608   -0.3765 C   0  0  0  0  0  0
    5.8116    1.1011    1.9099 C   0  0  0  0  0  0
   -3.9007    0.9892   -0.1812 C   0  0  0  0  0  0
    4.8896   -3.6210   -0.4280 C   0  0  0  0  0  0
    2.4845   -3.4325   -0.6430 C   0  0  0  0  0  0
    6.3603    1.9625    0.7728 C   0  0  0  0  0  0
   -4.6206    0.9485   -1.5392 C   0  0  0  0  0  0
   -4.7276    0.1893    0.8449 C   0  0  0  0  0  0
    4.8495   -4.8822   -1.0529 C   0  0  0  0  0  0
    2.4411   -4.6936   -1.2682 C   0  0  0  0  0  0
   -3.7792    2.3777    0.3153 C   0  0  0  0  0  0
    3.6239   -5.4219   -1.4748 C   0  0  0  0  0  0
   -4.9554   -0.2998   -2.1162 C   0  0  0  0  0  0
   -5.8834    0.7796    1.4104 C   0  0  0  0  0  0
   -4.9509    2.1299   -2.2484 C   0  0  0  0  0  0
   -4.4006   -1.1386    1.2188 C   0  0  0  0  0  0
   -5.6097   -0.3688   -3.3609 C   0  0  0  0  0  0
   -6.6751    0.0777    2.3392 C   0  0  0  0  0  0
   -5.6054    2.0609   -3.4937 C   0  0  0  0  0  0
   -5.1919   -1.8410    2.1481 C   0  0  0  0  0  0
    5.7898    3.7348   -0.7469 C   0  0  0  0  0  0
   -5.9365    0.8125   -4.0507 C   0  0  0  0  0  0
   -6.3279   -1.2330    2.7118 C   0  0  0  0  0  0
    5.4094    3.0555   -2.0690 C   0  0  0  0  0  0
    1.3612   -2.2835    1.4631 H   0  0  0  0  0  0
    2.1720   -1.4425    2.7236 H   0  0  0  0  0  0
    2.6554    0.4626   -1.1125 H   0  0  0  0  0  0
    1.6960   -0.9608   -1.1995 H   0  0  0  0  0  0
    0.6551    0.4888    2.5080 H   0  0  0  0  0  0
   -0.2728   -0.9842    2.5909 H   0  0  0  0  0  0
    0.2110    0.8876   -1.1651 H   0  0  0  0  0  0
    0.9462    1.6196    0.2318 H   0  0  0  0  0  0
    5.7358   -0.9309   -0.0201 H   0  0  0  0  0  0
    5.5516   -1.6986    1.5739 H   0  0  0  0  0  0
   -2.0363    0.1375    1.7177 H   0  0  0  0  0  0
   -1.3624    1.6293    1.1259 H   0  0  0  0  0  0
   -2.0043    1.0346   -1.1889 H   0  0  0  0  0  0
   -2.4601   -0.5689   -0.7336 H   0  0  0  0  0  0
    5.4319    1.7444    2.7045 H   0  0  0  0  0  0
    6.6173    0.5027    2.3360 H   0  0  0  0  0  0
    5.8602   -3.2591   -0.1259 H   0  0  0  0  0  0
    1.5410   -2.9315   -0.5178 H   0  0  0  0  0  0
    5.7638   -5.4360   -1.2081 H   0  0  0  0  0  0
    1.4949   -5.1029   -1.5904 H   0  0  0  0  0  0
    3.5912   -6.3893   -1.9543 H   0  0  0  0  0  0
   -4.7114   -1.2189   -1.6046 H   0  0  0  0  0  0
   -6.1775    1.7806    1.1301 H   0  0  0  0  0  0
   -4.7109    3.1070   -1.8582 H   0  0  0  0  0  0
   -3.5458   -1.6466    0.8021 H   0  0  0  0  0  0
   -5.8607   -1.3293   -3.7866 H   0  0  0  0  0  0
   -7.5520    0.5449    2.7630 H   0  0  0  0  0  0
   -5.8531    2.9693   -4.0231 H   0  0  0  0  0  0
   -4.9288   -2.8511    2.4259 H   0  0  0  0  0  0
    5.2224    4.6589   -0.6362 H   0  0  0  0  0  0
    6.8446    4.0137   -0.7428 H   0  0  0  0  0  0
   -6.4385    0.7612   -5.0057 H   0  0  0  0  0  0
   -6.9355   -1.7732    3.4230 H   0  0  0  0  0  0
    5.6077    3.7155   -2.9135 H   0  0  0  0  0  0
    5.9793    2.1389   -2.2230 H   0  0  0  0  0  0
    4.3499    2.7990   -2.0863 H   0  0  0  0  0  0
   -0.2234   -0.0932    0.6702 N   0  3  0  0  0  0
   -0.4208   -0.9747    0.2183 H   0  0  0  0  0  0
  1 12  2  0  0  0
  2 21  1  0  0  0
  2 36  1  0  0  0
  3 21  2  0  0  0
  4  7  1  0  0  0
  4 13  1  0  0  0
  4 15  1  0  0  0
  5 12  1  0  0  0
  5 13  1  0  0  0
  5 17  1  0  0  0
  6 26  3  0  0  0
  7  8  1  0  0  0
  7  9  1  0  0  0
  7 12  1  0  0  0
  8 10  1  0  0  0
  8 40  1  0  0  0
  8 41  1  0  0  0
  9 11  1  0  0  0
  9 42  1  0  0  0
  9 43  1  0  0  0
 10 44  1  0  0  0
 10 45  1  0  0  0
 10 76  1  0  0  0
 11 46  1  0  0  0
 11 47  1  0  0  0
 11 76  1  0  0  0
 13 48  1  0  0  0
 13 49  1  0  0  0
 14 16  1  0  0  0
 14 50  1  0  0  0
 14 51  1  0  0  0
 14 76  1  0  0  0
 15 19  2  0  0  0
 15 20  1  0  0  0
 16 18  1  0  0  0
 16 52  1  0  0  0
 16 53  1  0  0  0
 17 21  1  0  0  0
 17 54  1  0  0  0
 17 55  1  0  0  0
 18 22  1  0  0  0
 18 23  1  0  0  0
 18 26  1  0  0  0
 19 24  1  0  0  0
 19 56  1  0  0  0
 20 25  2  0  0  0
 20 57  1  0  0  0
 22 28  2  0  0  0
 22 30  1  0  0  0
 23 29  2  0  0  0
 23 31  1  0  0  0
 24 27  2  0  0  0
 24 58  1  0  0  0
 25 27  1  0  0  0
 25 59  1  0  0  0
 27 60  1  0  0  0
 28 32  1  0  0  0
 28 61  1  0  0  0
 29 33  1  0  0  0
 29 62  1  0  0  0
 30 34  2  0  0  0
 30 63  1  0  0  0
 31 35  2  0  0  0
 31 64  1  0  0  0
 32 37  2  0  0  0
 32 65  1  0  0  0
 33 38  2  0  0  0
 33 66  1  0  0  0
 34 37  1  0  0  0
 34 67  1  0  0  0
 35 38  1  0  0  0
 35 68  1  0  0  0
 36 39  1  0  0  0
 36 69  1  0  0  0
 36 70  1  0  0  0
 37 71  1  0  0  0
 38 72  1  0  0  0
 39 73  1  0  0  0
 39 74  1  0  0  0
 39 75  1  0  0  0
 76 77  1  0  0  0
M  CHG  1  76   1
M  END
> <LID>
L022591

> <PC_CID>
9984678

> <Names>


> <CAS_Numbers>


$$$$
9846232
                    3D
 Structure written by MMmdl.
 53 55  0  0  1  0            999 V2000
   -2.7708   -2.7604   -0.6320 Cl  0  0  0  0  0  0
   -2.4033   -3.3531    2.4777 Cl  0  0  0  0  0  0
   -0.9025    3.1540    0.4867 S   0  0  0  0  0  0
    0.3001   -4.4315   -0.9402 O   0  0  0  0  0  0
   -0.2926    2.9220    1.8054 O   0  0  0  0  0  0
   -1.0450    4.5265   -0.0220 O   0  0  0  0  0  0
    0.0100    2.2559   -0.6899 N   0  0  0  0  0  0
    1.5061   -2.4468   -1.6474 C   0  0  0  0  0  0
    1.1389   -1.8219    0.6208 C   0  0  0  0  0  0
    1.5186   -3.7282   -0.7934 C   0  0  1  0  0  0
    0.7175   -0.1319   -1.1877 C   0  0  0  0  0  0
    1.6799   -3.2468    0.6489 C   0  0  0  0  0  0
    0.8472    1.1078   -0.2627 C   0  0  1  0  0  0
    2.2999    1.5280   -0.0625 C   0  0  0  0  0  0
   -0.2881    2.4327   -2.1203 C   0  0  0  0  0  0
   -2.5728    2.3608    0.4360 C   0  0  0  0  0  0
    3.1313    1.8324   -1.1639 C   0  0  0  0  0  0
    2.8263    1.6202    1.2447 C   0  0  0  0  0  0
   -2.5410    0.9332    0.9504 C   0  0  0  0  0  0
    4.4710    2.2155   -0.9597 C   0  0  0  0  0  0
    4.1657    2.0037    1.4486 C   0  0  0  0  0  0
    4.9891    2.3004    0.3463 C   0  0  0  0  0  0
   -2.6856   -0.1401    0.0481 C   0  0  0  0  0  0
   -2.3880    0.6686    2.3271 C   0  0  0  0  0  0
   -2.6490   -1.4700    0.5096 C   0  0  0  0  0  0
   -2.3565   -0.6598    2.7926 C   0  0  0  0  0  0
   -2.4822   -1.7317    1.8873 C   0  0  0  0  0  0
    0.6366   -2.4226   -2.3075 H   0  0  0  0  0  0
    2.3919   -2.3859   -2.2805 H   0  0  0  0  0  0
    1.5439   -1.2124    1.4290 H   0  0  0  0  0  0
    0.0561   -1.8425    0.7218 H   0  0  0  0  0  0
    1.0675    0.1016   -2.1933 H   0  0  0  0  0  0
   -0.3268   -0.4247   -1.2869 H   0  0  0  0  0  0
    2.3343   -4.3928   -1.0805 H   0  0  0  0  0  0
    1.1778   -3.8804    1.3817 H   0  0  0  0  0  0
    2.7397   -3.2233    0.9065 H   0  0  0  0  0  0
    0.4663    0.7956    0.7092 H   0  0  0  0  0  0
   -0.6698    3.4352   -2.3122 H   0  0  0  0  0  0
    0.6060    2.3049   -2.7283 H   0  0  0  0  0  0
   -1.0450    1.7172   -2.4421 H   0  0  0  0  0  0
   -0.4159   -3.8816   -0.6599 H   0  0  0  0  0  0
   -3.2437    2.9554    1.0563 H   0  0  0  0  0  0
   -2.9480    2.4085   -0.5862 H   0  0  0  0  0  0
    2.7523    1.7741   -2.1726 H   0  0  0  0  0  0
    2.2041    1.4005    2.1003 H   0  0  0  0  0  0
    5.1014    2.4463   -1.8059 H   0  0  0  0  0  0
    4.5609    2.0727    2.4515 H   0  0  0  0  0  0
    6.0163    2.5959    0.5025 H   0  0  0  0  0  0
   -2.8091    0.0530   -1.0076 H   0  0  0  0  0  0
   -2.2872    1.4831    3.0298 H   0  0  0  0  0  0
   -2.2290   -0.8558    3.8472 H   0  0  0  0  0  0
    1.5045   -1.2983   -0.7110 N   0  3  2  0  0  0
    2.4664   -0.9969   -0.6365 H   0  0  0  0  0  0
  1 25  1  0  0  0
  2 27  1  0  0  0
  3  5  2  0  0  0
  3  6  2  0  0  0
  3  7  1  0  0  0
  3 16  1  0  0  0
  4 10  1  0  0  0
  4 41  1  0  0  0
  7 13  1  0  0  0
  7 15  1  0  0  0
  8 10  1  0  0  0
  8 28  1  0  0  0
  8 29  1  0  0  0
  8 52  1  0  0  0
  9 12  1  0  0  0
  9 30  1  0  0  0
  9 31  1  0  0  0
  9 52  1  0  0  0
 10 12  1  0  0  0
 10 34  1  0  0  0
 11 13  1  0  0  0
 11 32  1  0  0  0
 11 33  1  0  0  0
 11 52  1  0  0  0
 12 35  1  0  0  0
 12 36  1  0  0  0
 13 14  1  0  0  0
 13 37  1  0  0  0
 14 17  2  0  0  0
 14 18  1  0  0  0
 15 38  1  0  0  0
 15 39  1  0  0  0
 15 40  1  0  0  0
 16 19  1  0  0  0
 16 42  1  0  0  0
 16 43  1  0  0  0
 17 20  1  0  0  0
 17 44  1  0  0  0
 18 21  2  0  0  0
 18 45  1  0  0  0
 19 23  2  0  0  0
 19 24  1  0  0  0
 20 22  2  0  0  0
 20 46  1  0  0  0
 21 22  1  0  0  0
 21 47  1  0  0  0
 22 48  1  0  0  0
 23 25  1  0  0  0
 23 49  1  0  0  0
 24 26  2  0  0  0
 24 50  1  0  0  0
 25 27  2  0  0  0
 26 27  1  0  0  0
 26 51  1  0  0  0
 52 53  1  0  0  0
M  CHG  1  52   1
M  END
> <LID>
L011379

> <PC_CID>
9846232

> <Names>


> <CAS_Numbers>


$$$$
44215690
                    3D
 Structure written by MMmdl.
 65 70  0  0  1  0            999 V2000
   -0.7460    0.2188   -0.6957 O   0  0  0  0  0  0
    3.4838    0.4085   -2.0877 O   0  0  0  0  0  0
    2.3198   -1.3066   -3.8837 O   0  0  0  0  0  0
    6.2383   -0.4486   -1.3820 O   0  0  0  0  0  0
    1.6477    0.2404   -0.5895 C   0  0  1  0  0  0
    0.3684   -0.5588   -0.2285 C   0  0  1  0  0  0
    0.3565   -0.6544    1.3272 C   0  0  1  0  0  0
    2.0440    0.3051   -2.0992 C   0  0  2  0  0  0
    1.5264    1.6745   -0.0021 C   0  0  0  0  0  0
    2.8750   -0.4039   -0.0209 C   0  0  0  0  0  0
    0.3678   -1.9275   -0.9528 C   0  0  0  0  0  0
    1.6233   -1.3775    1.8853 C   0  0  0  0  0  0
    1.2741    1.6699    1.5187 C   0  0  0  0  0  0
    2.9578   -1.1011    1.1917 C   0  0  0  0  0  0
    0.4260   -1.7469   -2.4787 C   0  0  0  0  0  0
    1.6637   -0.9560   -2.9046 C   0  0  0  0  0  0
    3.8962   -0.1848   -0.9253 C   0  0  0  0  0  0
   -0.3630    0.8497    3.2452 C   0  0  0  0  0  0
    4.2451   -1.5567    1.5470 C   0  0  0  0  0  0
    5.1765   -0.6372   -0.5474 C   0  0  0  0  0  0
   -2.0707   -0.2595   -0.4790 C   0  0  0  0  0  0
    5.3486   -1.3069    0.6910 C   0  0  0  0  0  0
    0.6829    0.7309    4.3400 C   0  0  0  0  0  0
   -3.0437    0.8080   -0.9897 C   0  0  0  0  0  0
   -4.5133    0.4019   -0.8093 C   0  0  0  0  0  0
    0.6630   -0.1964    5.3094 C   0  0  0  0  0  0
   -5.4675    1.4679   -1.3130 C   0  0  0  0  0  0
   -5.9317    2.4742   -0.4397 C   0  0  0  0  0  0
   -5.8910    1.4611   -2.6588 C   0  0  0  0  0  0
   -6.8150    3.4660   -0.9091 C   0  0  0  0  0  0
   -6.7743    2.4533   -3.1276 C   0  0  0  0  0  0
   -7.2366    3.4556   -2.2529 C   0  0  0  0  0  0
   -0.5068   -1.2383    1.6456 H   0  0  0  0  0  0
    1.5964    1.1699   -2.5894 H   0  0  0  0  0  0
    0.7158    2.2108   -0.4969 H   0  0  0  0  0  0
    2.4264    2.2535   -0.2146 H   0  0  0  0  0  0
   -0.5067   -2.5166   -0.6797 H   0  0  0  0  0  0
    1.2192   -2.5323   -0.6396 H   0  0  0  0  0  0
    1.4625   -2.4516    1.7886 H   0  0  0  0  0  0
    1.7476   -1.2153    2.9522 H   0  0  0  0  0  0
    2.1845    1.4014    2.0548 H   0  0  0  0  0  0
    1.0111    2.6768    1.8450 H   0  0  0  0  0  0
   -0.4619   -1.2267   -2.8382 H   0  0  0  0  0  0
    0.4411   -2.7213   -2.9676 H   0  0  0  0  0  0
   -0.8307    1.8296    3.3452 H   0  0  0  0  0  0
   -1.1575    0.1183    3.3995 H   0  0  0  0  0  0
    4.3883   -2.1135    2.4614 H   0  0  0  0  0  0
   -2.2459   -1.1912   -1.0157 H   0  0  0  0  0  0
   -2.2613   -0.4412    0.5779 H   0  0  0  0  0  0
    6.3290   -1.6623    0.9727 H   0  0  0  0  0  0
    1.4864    1.4528    4.3265 H   0  0  0  0  0  0
   -2.8578    1.7457   -0.4643 H   0  0  0  0  0  0
   -2.8456    1.0002   -2.0450 H   0  0  0  0  0  0
    5.9935   -0.0134   -2.1848 H   0  0  0  0  0  0
   -4.7114   -0.5312   -1.3385 H   0  0  0  0  0  0
   -4.7214    0.2067    0.2436 H   0  0  0  0  0  0
   -0.1221   -0.9365    5.3647 H   0  0  0  0  0  0
    1.4359   -0.2270    6.0635 H   0  0  0  0  0  0
   -5.6112    2.4892    0.5917 H   0  0  0  0  0  0
   -5.5387    0.6963   -3.3355 H   0  0  0  0  0  0
   -7.1690    4.2350   -0.2384 H   0  0  0  0  0  0
   -7.0968    2.4455   -4.1583 H   0  0  0  0  0  0
   -7.9139    4.2162   -2.6126 H   0  0  0  0  0  0
    0.1743    0.7327    1.8618 N   0  3  2  0  0  0
   -0.5972    1.0704    1.3025 H   0  0  0  0  0  0
  1  6  1  0  0  0
  1 21  1  0  0  0
  2  8  1  0  0  0
  2 17  1  0  0  0
  3 16  2  0  0  0
  4 20  1  0  0  0
  4 54  1  0  0  0
  5  6  1  0  0  0
  5  8  1  0  0  0
  5  9  1  0  0  0
  5 10  1  0  0  0
  6  7  1  0  0  0
  6 11  1  0  0  0
  7 12  1  0  0  0
  7 33  1  0  0  0
  7 64  1  0  0  0
  8 16  1  0  0  0
  8 34  1  0  0  0
  9 13  1  0  0  0
  9 35  1  0  0  0
  9 36  1  0  0  0
 10 14  2  0  0  0
 10 17  1  0  0  0
 11 15  1  0  0  0
 11 37  1  0  0  0
 11 38  1  0  0  0
 12 14  1  0  0  0
 12 39  1  0  0  0
 12 40  1  0  0  0
 13 41  1  0  0  0
 13 42  1  0  0  0
 13 64  1  0  0  0
 14 19  1  0  0  0
 15 16  1  0  0  0
 15 43  1  0  0  0
 15 44  1  0  0  0
 17 20  2  0  0  0
 18 23  1  0  0  0
 18 45  1  0  0  0
 18 46  1  0  0  0
 18 64  1  0  0  0
 19 22  2  0  0  0
 19 47  1  0  0  0
 20 22  1  0  0  0
 21 24  1  0  0  0
 21 48  1  0  0  0
 21 49  1  0  0  0
 22 50  1  0  0  0
 23 26  2  0  0  0
 23 51  1  0  0  0
 24 25  1  0  0  0
 24 52  1  0  0  0
 24 53  1  0  0  0
 25 27  1  0  0  0
 25 55  1  0  0  0
 25 56  1  0  0  0
 26 57  1  0  0  0
 26 58  1  0  0  0
 27 28  2  0  0  0
 27 29  1  0  0  0
 28 30  1  0  0  0
 28 59  1  0  0  0
 29 31  2  0  0  0
 29 60  1  0  0  0
 30 32  2  0  0  0
 30 61  1  0  0  0
 31 32  1  0  0  0
 31 62  1  0  0  0
 32 63  1  0  0  0
 64 65  1  0  0  0
M  CHG  1  64   1
M  END
> <LID>
L022103

> <PC_CID>
44215690

> <Names>


> <CAS_Numbers>


$$$$
14933785
                    3D
 Structure written by MMmdl.
 48 51  0  0  1  0            999 V2000
    6.1652   -1.8692    1.8732 Cl  0  0  0  0  0  0
    7.5847   -0.7319   -0.7463 Cl  0  0  0  0  0  0
   -3.4962    3.2607   -0.8382 O   0  0  0  0  0  0
   -3.9033   -4.3129   -2.0326 O   0  0  0  0  0  0
    1.2246   -0.4680   -0.3730 O   0  0  0  0  0  0
   -0.3149    0.9614    0.4727 N   0  0  0  0  0  0
   -1.4400    0.2600   -0.2083 C   0  0  1  0  0  0
   -2.0204   -0.8318    0.7201 C   0  0  0  0  0  0
   -2.4860    1.2483   -0.6757 C   0  0  0  0  0  0
   -0.6890    2.0977    1.3605 C   0  0  0  0  0  0
   -1.5222    3.1867    0.6426 C   0  0  0  0  0  0
   -3.8808   -2.4565    1.0185 C   0  0  0  0  0  0
   -2.4903    2.5440   -0.2753 C   0  0  0  0  0  0
   -2.6312   -2.5003   -1.0280 C   0  0  0  0  0  0
   -4.5412   -3.5617    0.1893 C   0  0  0  0  0  0
   -3.7182   -3.5567   -1.0827 C   0  0  0  0  0  0
    0.9630    0.5385    0.2897 C   0  0  0  0  0  0
   -3.5903    1.1304   -1.5681 C   0  0  0  0  0  0
   -4.1660    2.3716   -1.6257 C   0  0  0  0  0  0
    2.1207    1.3374    0.9209 C   0  0  0  0  0  0
    3.4900    0.8154    0.5090 C   0  0  0  0  0  0
    4.1364   -0.1711    1.2835 C   0  0  0  0  0  0
    4.1223    1.3171   -0.6479 C   0  0  0  0  0  0
    5.4032   -0.6582    0.9046 C   0  0  0  0  0  0
    5.3884    0.8324   -1.0282 C   0  0  0  0  0  0
    6.0318   -0.1546   -0.2557 C   0  0  0  0  0  0
   -1.0812   -0.2084   -1.1261 H   0  0  0  0  0  0
   -1.2302   -1.5032    1.0601 H   0  0  0  0  0  0
   -2.4331   -0.3611    1.6135 H   0  0  0  0  0  0
   -1.2998    1.6739    2.1583 H   0  0  0  0  0  0
    0.1432    2.5721    1.8768 H   0  0  0  0  0  0
   -2.0377    3.8175    1.3672 H   0  0  0  0  0  0
   -0.8617    3.8359    0.0670 H   0  0  0  0  0  0
   -4.6146   -1.8471    1.5471 H   0  0  0  0  0  0
   -3.2217   -2.9057    1.7637 H   0  0  0  0  0  0
   -2.5476   -1.9524   -1.9668 H   0  0  0  0  0  0
   -1.6751   -2.9697   -0.7940 H   0  0  0  0  0  0
   -5.5764   -3.3171   -0.0500 H   0  0  0  0  0  0
   -4.5109   -4.5308    0.6878 H   0  0  0  0  0  0
   -3.9196    0.2565   -2.1103 H   0  0  0  0  0  0
    2.0462    2.3851    0.6264 H   0  0  0  0  0  0
    2.0407    1.2965    2.0079 H   0  0  0  0  0  0
   -5.0120    2.7799   -2.1591 H   0  0  0  0  0  0
    3.6583   -0.5608    2.1704 H   0  0  0  0  0  0
    3.6367    2.0721   -1.2489 H   0  0  0  0  0  0
    5.8666    1.2192   -1.9161 H   0  0  0  0  0  0
   -3.0904   -1.6295    0.0766 N   0  3  2  0  0  0
   -3.7453   -0.9756   -0.3294 H   0  0  0  0  0  0
  1 24  1  0  0  0
  2 26  1  0  0  0
  3 13  1  0  0  0
  3 19  1  0  0  0
  4 16  2  0  0  0
  5 17  2  0  0  0
  6  7  1  0  0  0
  6 10  1  0  0  0
  6 17  1  0  0  0
  7  8  1  0  0  0
  7  9  1  0  0  0
  7 27  1  0  0  0
  8 28  1  0  0  0
  8 29  1  0  0  0
  8 47  1  0  0  0
  9 13  2  0  0  0
  9 18  1  0  0  0
 10 11  1  0  0  0
 10 30  1  0  0  0
 10 31  1  0  0  0
 11 13  1  0  0  0
 11 32  1  0  0  0
 11 33  1  0  0  0
 12 15  1  0  0  0
 12 34  1  0  0  0
 12 35  1  0  0  0
 12 47  1  0  0  0
 14 16  1  0  0  0
 14 36  1  0  0  0
 14 37  1  0  0  0
 14 47  1  0  0  0
 15 16  1  0  0  0
 15 38  1  0  0  0
 15 39  1  0  0  0
 17 20  1  0  0  0
 18 19  2  0  0  0
 18 40  1  0  0  0
 19 43  1  0  0  0
 20 21  1  0  0  0
 20 41  1  0  0  0
 20 42  1  0  0  0
 21 22  2  0  0  0
 21 23  1  0  0  0
 22 24  1  0  0  0
 22 44  1  0  0  0
 23 25  2  0  0  0
 23 45  1  0  0  0
 24 26  2  0  0  0
 25 26  1  0  0  0
 25 46  1  0  0  0
 47 48  1  0  0  0
M  CHG  1  47   1
M  END
> <LID>
L003818

> <PC_CID>
14933785

> <Names>


> <CAS_Numbers>


$$$$
14933784
                    3D
 Structure written by MMmdl.
 53 56  0  0  1  0            999 V2000
    6.8619    1.2836   -1.3600 Cl  0  0  0  0  0  0
    7.9534   -0.5035    1.0452 Cl  0  0  0  0  0  0
   -3.4654   -2.6297    0.5268 O   0  0  0  0  0  0
   -3.8968    4.6883    1.4496 O   0  0  0  0  0  0
    1.6629    0.4224    0.5479 O   0  0  0  0  0  0
   -0.0611   -0.5693   -0.5356 N   0  0  0  0  0  0
   -1.0868    0.1779    0.2468 C   0  0  1  0  0  0
   -1.5155    1.4390   -0.5438 C   0  0  0  0  0  0
   -2.2273    3.7651   -0.0190 C   0  0  0  0  0  0
   -3.9054    2.0577   -0.0718 C   0  0  0  0  0  0
   -3.5931    4.4419    0.0908 C   0  0  1  0  0  0
   -4.5338    3.3909   -0.4882 C   0  0  0  0  0  0
   -2.2230   -0.7487    0.6203 C   0  0  0  0  0  0
   -0.5877   -1.4746   -1.5959 C   0  0  0  0  0  0
   -1.5721   -2.5395   -1.0540 C   0  0  0  0  0  0
   -2.4114   -1.9467    0.0134 C   0  0  0  0  0  0
   -3.2320   -0.6803    1.6227 C   0  0  0  0  0  0
    1.2615   -0.4036   -0.2746 C   0  0  0  0  0  0
   -3.9659   -1.8324    1.5148 C   0  0  0  0  0  0
    2.2917   -1.2747   -1.0207 C   0  0  0  0  0  0
   -5.1476   -2.3667    2.2488 C   0  0  0  0  0  0
    3.7113   -1.0771   -0.5082 C   0  0  0  0  0  0
    4.5493   -0.1051   -1.0947 C   0  0  0  0  0  0
    4.1988   -1.8666    0.5543 C   0  0  0  0  0  0
    5.8635    0.0820   -0.6221 C   0  0  0  0  0  0
    5.5118   -1.6820    1.0279 C   0  0  0  0  0  0
    6.3468   -0.7093    0.4434 C   0  0  0  0  0  0
   -0.6774    0.5035    1.2047 H   0  0  0  0  0  0
   -0.6073    2.0091   -0.7471 H   0  0  0  0  0  0
   -1.9252    1.1828   -1.5214 H   0  0  0  0  0  0
   -1.4918    4.1614    0.6824 H   0  0  0  0  0  0
   -1.8430    3.9306   -1.0273 H   0  0  0  0  0  0
   -4.3646    1.7234    0.8580 H   0  0  0  0  0  0
   -4.0793    1.2812   -0.8179 H   0  0  0  0  0  0
   -3.6321    5.3830   -0.4591 H   0  0  0  0  0  0
   -5.5668    3.4996   -0.1551 H   0  0  0  0  0  0
   -4.5303    3.4654   -1.5767 H   0  0  0  0  0  0
   -1.1283   -0.8432   -2.3011 H   0  0  0  0  0  0
    0.1716   -1.9650   -2.2019 H   0  0  0  0  0  0
   -2.1927   -2.9358   -1.8581 H   0  0  0  0  0  0
   -1.0126   -3.3789   -0.6403 H   0  0  0  0  0  0
   -3.4009    0.1089    2.3401 H   0  0  0  0  0  0
   -4.7388    5.1160    1.5005 H   0  0  0  0  0  0
    2.0282   -2.3277   -0.9129 H   0  0  0  0  0  0
    2.2649   -1.0380   -2.0850 H   0  0  0  0  0  0
   -5.9749   -2.5554    1.5646 H   0  0  0  0  0  0
   -4.9007   -3.3034    2.7488 H   0  0  0  0  0  0
   -5.4892   -1.6598    3.0052 H   0  0  0  0  0  0
    4.1830    0.5041   -1.9082 H   0  0  0  0  0  0
    3.5660   -2.6134    1.0115 H   0  0  0  0  0  0
    5.8785   -2.2885    1.8430 H   0  0  0  0  0  0
   -2.4652    2.3167    0.1893 N   0  3  1  0  0  0
   -2.3211    2.1573    1.1764 H   0  0  0  0  0  0
  1 25  1  0  0  0
  2 27  1  0  0  0
  3 16  1  0  0  0
  3 19  1  0  0  0
  4 11  1  0  0  0
  4 43  1  0  0  0
  5 18  2  0  0  0
  6  7  1  0  0  0
  6 14  1  0  0  0
  6 18  1  0  0  0
  7  8  1  0  0  0
  7 13  1  0  0  0
  7 28  1  0  0  0
  8 29  1  0  0  0
  8 30  1  0  0  0
  8 52  1  0  0  0
  9 11  1  0  0  0
  9 31  1  0  0  0
  9 32  1  0  0  0
  9 52  1  0  0  0
 10 12  1  0  0  0
 10 33  1  0  0  0
 10 34  1  0  0  0
 10 52  1  0  0  0
 11 12  1  0  0  0
 11 35  1  0  0  0
 12 36  1  0  0  0
 12 37  1  0  0  0
 13 16  2  0  0  0
 13 17  1  0  0  0
 14 15  1  0  0  0
 14 38  1  0  0  0
 14 39  1  0  0  0
 15 16  1  0  0  0
 15 40  1  0  0  0
 15 41  1  0  0  0
 17 19  2  0  0  0
 17 42  1  0  0  0
 18 20  1  0  0  0
 19 21  1  0  0  0
 20 22  1  0  0  0
 20 44  1  0  0  0
 20 45  1  0  0  0
 21 46  1  0  0  0
 21 47  1  0  0  0
 21 48  1  0  0  0
 22 23  2  0  0  0
 22 24  1  0  0  0
 23 25  1  0  0  0
 23 49  1  0  0  0
 24 26  2  0  0  0
 24 50  1  0  0  0
 25 27  2  0  0  0
 26 27  1  0  0  0
 26 51  1  0  0  0
 52 53  1  0  0  0
M  CHG  1  52   1
M  END
> <LID>
L003819

> <PC_CID>
14933784

> <Names>


> <CAS_Numbers>


$$$$
135018
                    3D
 Structure written by MMmdl.
 48 51  0  0  1  0            999 V2000
    0.4315    2.5549   -1.1371 O   0  0  0  0  0  0
   -4.1480    0.0637    2.5968 O   0  0  0  0  0  0
   -0.5846   -1.5114   -0.5102 C   0  0  1  0  0  0
    0.2032   -0.9184   -1.7191 C   0  0  1  0  0  0
    1.0930    0.2415   -1.2107 C   0  0  1  0  0  0
    0.4651   -2.1301    0.4636 C   0  0  0  0  0  0
    3.7912    0.8014    1.3736 C   0  0  0  0  0  0
    1.8778   -1.4944    0.4346 C   0  0  0  0  0  0
    3.2434    0.5321   -0.0164 C   0  0  0  0  0  0
   -1.3285   -0.3583    0.2279 C   0  0  0  0  0  0
    3.4808    2.0964    2.0885 C   0  0  0  0  0  0
    4.8750    1.8356    1.5739 C   0  0  0  0  0  0
   -1.6266   -2.5640   -1.0334 C   0  0  0  0  0  0
    0.1861    1.3966   -0.8035 C   0  0  0  0  0  0
    0.9874   -1.9136   -2.6124 C   0  0  0  0  0  0
   -0.9610    1.0108    0.0575 C   0  0  0  0  0  0
   -2.4044   -0.6478    1.1048 C   0  0  0  0  0  0
   -1.8938   -3.8155   -0.1702 C   0  0  0  0  0  0
   -1.6851    2.0327    0.7128 C   0  0  0  0  0  0
   -3.1126    0.3741    1.7644 C   0  0  0  0  0  0
   -2.7569    1.7169    1.5636 C   0  0  0  0  0  0
   -0.5310   -0.4809   -2.4002 H   0  0  0  0  0  0
    1.7526    0.5690   -2.0154 H   0  0  0  0  0  0
    0.6285   -3.1796    0.2239 H   0  0  0  0  0  0
    0.0730   -2.1295    1.4817 H   0  0  0  0  0  0
    3.8895   -0.0832    1.9990 H   0  0  0  0  0  0
    2.3203   -1.5969    1.4248 H   0  0  0  0  0  0
    2.5340   -2.0545   -0.2308 H   0  0  0  0  0  0
    3.9302   -0.1151   -0.5635 H   0  0  0  0  0  0
    3.2147    1.4813   -0.5544 H   0  0  0  0  0  0
    3.3246    2.0507    3.1645 H   0  0  0  0  0  0
    2.8816    2.8371    1.5621 H   0  0  0  0  0  0
    5.2036    2.4054    0.7068 H   0  0  0  0  0  0
    5.6485    1.6178    2.3078 H   0  0  0  0  0  0
   -2.5705   -2.0627   -1.2523 H   0  0  0  0  0  0
   -1.3237   -2.9602   -1.9988 H   0  0  0  0  0  0
    0.3267   -2.4446   -3.2968 H   0  0  0  0  0  0
    1.7071   -1.3885   -3.2408 H   0  0  0  0  0  0
    1.5325   -2.6699   -2.0527 H   0  0  0  0  0  0
   -2.7155   -1.6618    1.2826 H   0  0  0  0  0  0
   -1.0772   -4.5329   -0.2502 H   0  0  0  0  0  0
   -2.0290   -3.5973    0.8868 H   0  0  0  0  0  0
   -2.7917   -4.3280   -0.5161 H   0  0  0  0  0  0
   -1.4178    3.0715    0.5798 H   0  0  0  0  0  0
   -3.2998    2.5048    2.0650 H   0  0  0  0  0  0
   -4.3146   -0.8643    2.6585 H   0  0  0  0  0  0
    1.8851   -0.0677    0.0194 N   0  3  1  0  0  0
    1.3941    0.4187    0.7568 H   0  0  0  0  0  0
  1 14  2  0  0  0
  2 20  1  0  0  0
  2 46  1  0  0  0
  3  4  1  0  0  0
  3  6  1  0  0  0
  3 10  1  0  0  0
  3 13  1  0  0  0
  4  5  1  0  0  0
  4 15  1  0  0  0
  4 22  1  0  0  0
  5 14  1  0  0  0
  5 23  1  0  0  0
  5 47  1  0  0  0
  6  8  1  0  0  0
  6 24  1  0  0  0
  6 25  1  0  0  0
  7  9  1  0  0  0
  7 11  1  0  0  0
  7 12  1  0  0  0
  7 26  1  0  0  0
  8 27  1  0  0  0
  8 28  1  0  0  0
  8 47  1  0  0  0
  9 29  1  0  0  0
  9 30  1  0  0  0
  9 47  1  0  0  0
 10 16  2  0  0  0
 10 17  1  0  0  0
 11 12  1  0  0  0
 11 31  1  0  0  0
 11 32  1  0  0  0
 12 33  1  0  0  0
 12 34  1  0  0  0
 13 18  1  0  0  0
 13 35  1  0  0  0
 13 36  1  0  0  0
 14 16  1  0  0  0
 15 37  1  0  0  0
 15 38  1  0  0  0
 15 39  1  0  0  0
 16 19  1  0  0  0
 17 20  2  0  0  0
 17 40  1  0  0  0
 18 41  1  0  0  0
 18 42  1  0  0  0
 18 43  1  0  0  0
 19 21  2  0  0  0
 19 44  1  0  0  0
 20 21  1  0  0  0
 21 45  1  0  0  0
 47 48  1  0  0  0
M  CHG  1  47   1
M  END
> <LID>
L024026

> <PC_CID>
135018

> <Names>
Ethylketocyclazocine

> <CAS_Numbers>
58640-84-9;36292-66-7

$$$$
12087614
                    3D
 Structure written by MMmdl.
 50 53  0  0  1  0            999 V2000
    4.0637    2.1983   -1.9438 Cl  0  0  0  0  0  0
    5.7469    2.4835    0.7457 Cl  0  0  0  0  0  0
   -2.9192   -2.6086   -1.9277 S   0  0  0  0  0  0
   -0.4725   -0.6516    1.6824 O   0  0  0  0  0  0
   -0.7471   -0.8247   -0.5683 N   0  0  0  0  0  0
   -2.1272   -0.2768   -0.6416 C   0  0  2  0  0  0
   -2.4172    0.9158    0.3147 C   0  0  0  0  0  0
    1.3641   -1.6577    0.5576 C   0  0  1  0  0  0
   -3.5499    3.1258    0.2873 C   0  0  0  0  0  0
   -4.9192    1.1806    0.4758 C   0  0  0  0  0  0
   -3.0983   -1.4723   -0.5165 C   0  0  0  0  0  0
    1.7406   -2.3611    1.8956 C   0  0  0  0  0  0
   -4.9952    3.5903    0.4291 C   0  0  0  0  0  0
   -5.6671    2.3815    1.0672 C   0  0  0  0  0  0
   -0.0400   -1.0052    0.5857 C   0  0  0  0  0  0
   -0.3885   -1.4739   -1.8414 C   0  0  0  0  0  0
    2.4201   -0.5806    0.4382 C   0  0  0  0  0  0
    2.7024   -1.4250    2.6624 C   0  0  0  0  0  0
    3.1592   -0.4540    1.6098 C   0  0  0  0  0  0
   -1.1135   -2.8268   -1.9407 C   0  0  0  0  0  0
    2.6925    0.2349   -0.6766 C   0  0  0  0  0  0
    4.1943    0.4894    1.7254 C   0  0  0  0  0  0
    3.7285    1.1905   -0.5811 C   0  0  0  0  0  0
    4.4780    1.3180    0.6173 C   0  0  0  0  0  0
   -2.2641    0.1451   -1.6386 H   0  0  0  0  0  0
   -2.5137    0.6059    1.3550 H   0  0  0  0  0  0
   -1.5603    1.5906    0.2692 H   0  0  0  0  0  0
    1.4677   -2.3966   -0.2338 H   0  0  0  0  0  0
   -2.9988    3.6916   -0.4646 H   0  0  0  0  0  0
   -3.0376    3.2476    1.2437 H   0  0  0  0  0  0
   -4.7893    0.4012    1.2279 H   0  0  0  0  0  0
   -5.4892    0.7526   -0.3495 H   0  0  0  0  0  0
   -2.9253   -2.0169    0.4126 H   0  0  0  0  0  0
   -4.1368   -1.1521   -0.5062 H   0  0  0  0  0  0
    0.8899   -2.6800    2.4995 H   0  0  0  0  0  0
    2.2884   -3.2714    1.6483 H   0  0  0  0  0  0
   -5.4262    3.7831   -0.5544 H   0  0  0  0  0  0
   -5.0939    4.4971    1.0268 H   0  0  0  0  0  0
   -5.5196    2.4102    2.1478 H   0  0  0  0  0  0
   -6.7406    2.3459    0.8789 H   0  0  0  0  0  0
   -0.6768   -0.8455   -2.6850 H   0  0  0  0  0  0
    0.6820   -1.5999   -1.9829 H   0  0  0  0  0  0
    3.5398   -1.9643    3.1063 H   0  0  0  0  0  0
    2.1786   -0.8808    3.4488 H   0  0  0  0  0  0
   -0.8310   -3.3441   -2.8577 H   0  0  0  0  0  0
   -0.8290   -3.4739   -1.1103 H   0  0  0  0  0  0
    2.1225    0.1407   -1.5882 H   0  0  0  0  0  0
    4.7598    0.5781    2.6413 H   0  0  0  0  0  0
   -3.6302    1.6897   -0.0594 N   0  3  0  0  0  0
   -3.7060    1.6589   -1.0663 H   0  0  0  0  0  0
  1 23  1  0  0  0
  2 24  1  0  0  0
  3 11  1  0  0  0
  3 20  1  0  0  0
  4 15  2  0  0  0
  5  6  1  0  0  0
  5 15  1  0  0  0
  5 16  1  0  0  0
  6  7  1  0  0  0
  6 11  1  0  0  0
  6 25  1  0  0  0
  7 26  1  0  0  0
  7 27  1  0  0  0
  7 49  1  0  0  0
  8 12  1  0  0  0
  8 15  1  0  0  0
  8 17  1  0  0  0
  8 28  1  0  0  0
  9 13  1  0  0  0
  9 29  1  0  0  0
  9 30  1  0  0  0
  9 49  1  0  0  0
 10 14  1  0  0  0
 10 31  1  0  0  0
 10 32  1  0  0  0
 10 49  1  0  0  0
 11 33  1  0  0  0
 11 34  1  0  0  0
 12 18  1  0  0  0
 12 35  1  0  0  0
 12 36  1  0  0  0
 13 14  1  0  0  0
 13 37  1  0  0  0
 13 38  1  0  0  0
 14 39  1  0  0  0
 14 40  1  0  0  0
 16 20  1  0  0  0
 16 41  1  0  0  0
 16 42  1  0  0  0
 17 19  1  0  0  0
 17 21  2  0  0  0
 18 19  1  0  0  0
 18 43  1  0  0  0
 18 44  1  0  0  0
 19 22  2  0  0  0
 20 45  1  0  0  0
 20 46  1  0  0  0
 21 23  1  0  0  0
 21 47  1  0  0  0
 22 24  1  0  0  0
 22 48  1  0  0  0
 23 24  2  0  0  0
 49 50  1  0  0  0
M  CHG  1  49   1
M  END
> <LID>
L001478

> <PC_CID>
12087614

> <Names>


> <CAS_Numbers>
128453-80-5;128525-20-2;128572-12-3

$$$$
18687627
                    3D
 Structure written by MMmdl.
 49 51  0  0  1  0            999 V2000
   -6.7748   -0.0124   -1.0679 Cl  0  0  0  0  0  0
   -6.6164   -2.9672    0.1210 Cl  0  0  0  0  0  0
    0.2337    2.2923    1.5806 O   0  0  0  0  0  0
   -1.2011    0.3818   -0.8551 O   0  0  0  0  0  0
    0.2451    1.1844    0.6970 N   0  0  0  0  0  0
    4.3373    2.3809   -0.6474 C   0  0  0  0  0  0
    5.2052    0.9526    1.0589 C   0  0  0  0  0  0
    5.8081    2.7400   -0.3979 C   0  0  0  0  0  0
    6.3943    1.5067    0.2814 C   0  0  0  0  0  0
    2.7395    1.2369    0.9096 C   0  0  0  0  0  0
    1.5210    1.1195   -0.0472 C   0  0  1  0  0  0
    1.6714   -0.1519   -0.8869 C   0  0  0  0  0  0
   -0.9955    0.8646    0.2588 C   0  0  0  0  0  0
    1.5253   -1.4276   -0.2961 C   0  0  0  0  0  0
    1.9756   -0.0575   -2.2626 C   0  0  0  0  0  0
   -2.1753    1.0246    1.2381 C   0  0  0  0  0  0
    1.6781   -2.5923   -1.0724 C   0  0  0  0  0  0
    2.1291   -1.2229   -3.0381 C   0  0  0  0  0  0
    1.9805   -2.4903   -2.4435 C   0  0  0  0  0  0
   -3.2922    0.0310    0.9554 C   0  0  0  0  0  0
   -4.3998    0.4107    0.1682 C   0  0  0  0  0  0
   -3.2269   -1.2767    1.4806 C   0  0  0  0  0  0
   -5.4341   -0.5085   -0.0974 C   0  0  0  0  0  0
   -4.2594   -2.1968    1.2171 C   0  0  0  0  0  0
   -5.3639   -1.8174    0.4290 C   0  0  0  0  0  0
    4.1706    2.1230   -1.6937 H   0  0  0  0  0  0
    3.6928    3.2288   -0.4104 H   0  0  0  0  0  0
    5.3167   -0.1049    1.3008 H   0  0  0  0  0  0
    5.0911    1.5040    1.9940 H   0  0  0  0  0  0
    5.8670    3.5923    0.2805 H   0  0  0  0  0  0
    6.3380    3.0076   -1.3127 H   0  0  0  0  0  0
    6.7177    0.7851   -0.4704 H   0  0  0  0  0  0
    7.2487    1.7374    0.9185 H   0  0  0  0  0  0
    2.7122    0.4134    1.6249 H   0  0  0  0  0  0
    2.7106    2.1549    1.4981 H   0  0  0  0  0  0
    1.5220    1.9752   -0.7244 H   0  0  0  0  0  0
    1.2920   -1.5169    0.7549 H   0  0  0  0  0  0
    2.0896    0.9088   -2.7317 H   0  0  0  0  0  0
   -1.8385    0.8776    2.2656 H   0  0  0  0  0  0
   -2.5623    2.0420    1.1709 H   0  0  0  0  0  0
   -0.6150    2.6835    1.4368 H   0  0  0  0  0  0
    1.5622   -3.5645   -0.6162 H   0  0  0  0  0  0
    2.3591   -1.1447   -4.0906 H   0  0  0  0  0  0
    2.0965   -3.3838   -3.0393 H   0  0  0  0  0  0
   -4.4563    1.4096   -0.2393 H   0  0  0  0  0  0
   -2.3830   -1.5784    2.0839 H   0  0  0  0  0  0
   -4.2028   -3.1971    1.6206 H   0  0  0  0  0  0
    4.0360    1.1933    0.1894 N   0  3  0  0  0  0
    3.9956    0.4053   -0.4423 H   0  0  0  0  0  0
  1 23  1  0  0  0
  2 25  1  0  0  0
  3  5  1  0  0  0
  3 41  1  0  0  0
  4 13  2  0  0  0
  5 11  1  0  0  0
  5 13  1  0  0  0
  6  8  1  0  0  0
  6 26  1  0  0  0
  6 27  1  0  0  0
  6 48  1  0  0  0
  7  9  1  0  0  0
  7 28  1  0  0  0
  7 29  1  0  0  0
  7 48  1  0  0  0
  8  9  1  0  0  0
  8 30  1  0  0  0
  8 31  1  0  0  0
  9 32  1  0  0  0
  9 33  1  0  0  0
 10 11  1  0  0  0
 10 34  1  0  0  0
 10 35  1  0  0  0
 10 48  1  0  0  0
 11 12  1  0  0  0
 11 36  1  0  0  0
 12 14  2  0  0  0
 12 15  1  0  0  0
 13 16  1  0  0  0
 14 17  1  0  0  0
 14 37  1  0  0  0
 15 18  2  0  0  0
 15 38  1  0  0  0
 16 20  1  0  0  0
 16 39  1  0  0  0
 16 40  1  0  0  0
 17 19  2  0  0  0
 17 42  1  0  0  0
 18 19  1  0  0  0
 18 43  1  0  0  0
 19 44  1  0  0  0
 20 21  2  0  0  0
 20 22  1  0  0  0
 21 23  1  0  0  0
 21 45  1  0  0  0
 22 24  2  0  0  0
 22 46  1  0  0  0
 23 25  2  0  0  0
 24 25  1  0  0  0
 24 47  1  0  0  0
 48 49  1  0  0  0
M  CHG  1  48   1
M  END
> <LID>
L015588

> <PC_CID>
18687627

> <Names>


> <CAS_Numbers>


$$$$
19819699
                    3D
 Structure written by MMmdl.
 51 54  0  0  1  0            999 V2000
   -8.1913   -1.0338   -1.6519 Cl  0  0  0  0  0  0
    2.6603    2.6967   -3.1220 O   0  0  0  0  0  0
    4.1360   -2.7250    0.8435 O   0  0  0  0  0  0
   -0.7029    0.8148    2.0110 O   0  0  0  0  0  0
   -2.9005    0.1539    0.7612 O   0  0  0  0  0  0
    0.7586   -0.2916    0.6763 N   0  0  0  0  0  0
    1.9235    0.1514    1.5022 C   0  0  2  0  0  0
    2.3820    1.5883    1.1466 C   0  0  0  0  0  0
    2.6096    3.1597   -0.7689 C   0  0  0  0  0  0
    4.0732    1.2823   -0.6923 C   0  0  0  0  0  0
    3.4355    3.2013   -2.0525 C   0  0  1  0  0  0
    4.6027    2.2601   -1.7518 C   0  0  0  0  0  0
    3.0501   -0.8517    1.4759 C   0  0  0  0  0  0
    1.0405   -1.1247   -0.5300 C   0  0  0  0  0  0
    1.9637   -2.3370   -0.2602 C   0  0  0  0  0  0
    3.0334   -1.9496    0.6831 C   0  0  0  0  0  0
    4.2761   -0.9270    2.1956 C   0  0  0  0  0  0
   -0.4958    0.0905    1.0355 C   0  0  0  0  0  0
    4.8923   -2.0753    1.7744 C   0  0  0  0  0  0
   -1.7025   -0.3784    0.2070 C   0  0  0  0  0  0
   -4.0969   -0.1601    0.1532 C   0  0  0  0  0  0
   -5.2662    0.3814    0.7261 C   0  0  0  0  0  0
   -4.2165   -0.9825   -0.9961 C   0  0  0  0  0  0
   -6.5324    0.1135    0.1711 C   0  0  0  0  0  0
   -5.4829   -1.2508   -1.5517 C   0  0  0  0  0  0
   -6.6415   -0.7036   -0.9693 C   0  0  0  0  0  0
    1.6261    0.1592    2.5526 H   0  0  0  0  0  0
    1.5592    2.2672    1.3758 H   0  0  0  0  0  0
    3.2083    1.9049    1.7847 H   0  0  0  0  0  0
    3.0458    3.8386   -0.0338 H   0  0  0  0  0  0
    1.5685    3.4502   -0.9173 H   0  0  0  0  0  0
    3.9843    0.2735   -1.0961 H   0  0  0  0  0  0
    4.7618    1.2417    0.1527 H   0  0  0  0  0  0
    3.7669    4.2111   -2.2977 H   0  0  0  0  0  0
    4.9839    1.7541   -2.6399 H   0  0  0  0  0  0
    5.4286    2.8328   -1.3278 H   0  0  0  0  0  0
    1.5338   -0.4738   -1.2511 H   0  0  0  0  0  0
    0.1567   -1.4892   -1.0493 H   0  0  0  0  0  0
    2.3883   -2.7118   -1.1919 H   0  0  0  0  0  0
    1.3836   -3.1510    0.1754 H   0  0  0  0  0  0
    4.6572   -0.2351    2.9321 H   0  0  0  0  0  0
    3.1717    2.7428   -3.9163 H   0  0  0  0  0  0
    5.8245   -2.5595    2.0260 H   0  0  0  0  0  0
   -1.5880   -0.0314   -0.8212 H   0  0  0  0  0  0
   -1.7426   -1.4689    0.2202 H   0  0  0  0  0  0
   -5.1908    1.0095    1.6017 H   0  0  0  0  0  0
   -3.3520   -1.4204   -1.4711 H   0  0  0  0  0  0
   -7.4186    0.5357    0.6217 H   0  0  0  0  0  0
   -5.5639   -1.8784   -2.4270 H   0  0  0  0  0  0
    2.7344    1.7718   -0.2837 N   0  3  1  0  0  0
    2.0646    1.2478   -0.8287 H   0  0  0  0  0  0
  1 26  1  0  0  0
  2 11  1  0  0  0
  2 42  1  0  0  0
  3 16  1  0  0  0
  3 19  1  0  0  0
  4 18  2  0  0  0
  5 20  1  0  0  0
  5 21  1  0  0  0
  6  7  1  0  0  0
  6 14  1  0  0  0
  6 18  1  0  0  0
  7  8  1  0  0  0
  7 13  1  0  0  0
  7 27  1  0  0  0
  8 28  1  0  0  0
  8 29  1  0  0  0
  8 50  1  0  0  0
  9 11  1  0  0  0
  9 30  1  0  0  0
  9 31  1  0  0  0
  9 50  1  0  0  0
 10 12  1  0  0  0
 10 32  1  0  0  0
 10 33  1  0  0  0
 10 50  1  0  0  0
 11 12  1  0  0  0
 11 34  1  0  0  0
 12 35  1  0  0  0
 12 36  1  0  0  0
 13 16  2  0  0  0
 13 17  1  0  0  0
 14 15  1  0  0  0
 14 37  1  0  0  0
 14 38  1  0  0  0
 15 16  1  0  0  0
 15 39  1  0  0  0
 15 40  1  0  0  0
 17 19  2  0  0  0
 17 41  1  0  0  0
 18 20  1  0  0  0
 19 43  1  0  0  0
 20 44  1  0  0  0
 20 45  1  0  0  0
 21 22  2  0  0  0
 21 23  1  0  0  0
 22 24  1  0  0  0
 22 46  1  0  0  0
 23 25  2  0  0  0
 23 47  1  0  0  0
 24 26  2  0  0  0
 24 48  1  0  0  0
 25 26  1  0  0  0
 25 49  1  0  0  0
 50 51  1  0  0  0
M  CHG  1  50   1
M  END
> <LID>
L003821

> <PC_CID>
19819699

> <Names>


> <CAS_Numbers>


$$$$
10051350
                    3D
 Structure written by MMmdl.
 74 78  0  0  1  0            999 V2000
    2.3783   -1.9345    1.0078 O   0  0  0  0  0  0
    3.7288    1.2400    0.1594 N   0  0  0  0  0  0
    4.3791   -0.9699    0.5100 N   0  0  0  0  0  0
    6.1161   -5.5705   -2.8785 N   0  0  0  0  0  0
    2.5206    0.4598    0.5030 C   0  0  0  0  0  0
    1.8638    0.9507    1.8269 C   0  0  0  0  0  0
    1.4849    0.4441   -0.6600 C   0  0  0  0  0  0
    0.4826    0.3254    2.1058 C   0  0  0  0  0  0
    0.1202   -0.1585   -0.2718 C   0  0  0  0  0  0
    3.0655   -0.9580    0.7087 C   0  0  0  0  0  0
    4.8888    0.3397    0.1662 C   0  0  0  0  0  0
   -1.8163    0.0519    1.2618 C   0  0  0  0  0  0
    3.8537    2.5735   -0.1320 C   0  0  0  0  0  0
    5.2639   -2.1287    0.5851 C   0  0  0  0  0  0
   -2.8673    0.7159    0.3496 C   0  0  0  0  0  0
    5.2309   -2.9458   -0.7157 C   0  0  0  0  0  0
   -4.3215    0.3609    0.7367 C   0  0  0  0  0  0
    5.1289    3.1206   -0.4387 C   0  0  0  0  0  0
    2.7498    3.4665   -0.1454 C   0  0  0  0  0  0
    6.1631   -4.1611   -0.6617 C   0  0  0  0  0  0
   -5.3575    1.1584   -0.0500 C   0  0  0  0  0  0
   -4.6145   -1.1367    0.6973 C   0  0  0  0  0  0
    5.2929    4.4857   -0.7425 C   0  0  0  0  0  0
    2.9104    4.8322   -0.4488 C   0  0  0  0  0  0
    4.1828    5.3455   -0.7482 C   0  0  0  0  0  0
   -5.3179    1.2184   -1.4619 C   0  0  0  0  0  0
   -5.1977   -1.7656    1.8194 C   0  0  0  0  0  0
   -6.3822    1.8446    0.6388 C   0  0  0  0  0  0
   -4.3129   -1.9099   -0.4469 C   0  0  0  0  0  0
    6.1370   -4.9502   -1.9023 C   0  0  0  0  0  0
   -6.2849    1.9567   -2.1714 C   0  0  0  0  0  0
   -5.4712   -3.1471    1.8005 C   0  0  0  0  0  0
   -7.3491    2.5829   -0.0709 C   0  0  0  0  0  0
   -4.5862   -3.2913   -0.4654 C   0  0  0  0  0  0
   -7.3005    2.6400   -1.4764 C   0  0  0  0  0  0
   -5.1648   -3.9107    0.6584 C   0  0  0  0  0  0
    1.7464    2.0302    1.8445 H   0  0  0  0  0  0
    2.5244    0.7390    2.6695 H   0  0  0  0  0  0
    1.8884   -0.1122   -1.5080 H   0  0  0  0  0  0
    1.3047    1.4394   -1.0554 H   0  0  0  0  0  0
    0.0547    0.8140    2.9821 H   0  0  0  0  0  0
    0.5689   -0.7312    2.3603 H   0  0  0  0  0  0
    0.1949   -1.2347   -0.1146 H   0  0  0  0  0  0
   -0.5609   -0.0266   -1.1114 H   0  0  0  0  0  0
    5.3630    0.3037   -0.8160 H   0  0  0  0  0  0
    5.6238    0.6554    0.9084 H   0  0  0  0  0  0
   -1.8763   -1.0363    1.2100 H   0  0  0  0  0  0
   -2.0524    0.3214    2.2923 H   0  0  0  0  0  0
    6.2816   -1.7913    0.7855 H   0  0  0  0  0  0
    4.9762   -2.7553    1.4309 H   0  0  0  0  0  0
   -2.7461    1.7985    0.4095 H   0  0  0  0  0  0
   -2.6837    0.4509   -0.6900 H   0  0  0  0  0  0
    4.2128   -3.2838   -0.9138 H   0  0  0  0  0  0
    5.5146   -2.3102   -1.5555 H   0  0  0  0  0  0
   -4.4293    0.6702    1.7776 H   0  0  0  0  0  0
    6.0186    2.5101   -0.4501 H   0  0  0  0  0  0
    1.7475    3.1432    0.0739 H   0  0  0  0  0  0
    7.1923   -3.8462   -0.4885 H   0  0  0  0  0  0
    5.8826   -4.8215    0.1591 H   0  0  0  0  0  0
    6.2749    4.8726   -0.9717 H   0  0  0  0  0  0
    2.0522    5.4880   -0.4514 H   0  0  0  0  0  0
    4.3066    6.3930   -0.9810 H   0  0  0  0  0  0
   -4.5498    0.6980   -2.0133 H   0  0  0  0  0  0
   -5.4403   -1.1916    2.7018 H   0  0  0  0  0  0
   -6.4345    1.8071    1.7171 H   0  0  0  0  0  0
   -3.8710   -1.4516   -1.3185 H   0  0  0  0  0  0
   -6.2483    1.9975   -3.2501 H   0  0  0  0  0  0
   -5.9174   -3.6209    2.6625 H   0  0  0  0  0  0
   -8.1293    3.1047    0.4636 H   0  0  0  0  0  0
   -4.3530   -3.8759   -1.3431 H   0  0  0  0  0  0
   -8.0424    3.2055   -2.0208 H   0  0  0  0  0  0
   -5.3752   -4.9700    0.6437 H   0  0  0  0  0  0
   -0.4319    0.4889    0.9471 N   0  3  0  0  0  0
   -0.4806    1.4810    0.7633 H   0  0  0  0  0  0
  1 10  2  0  0  0
  2  5  1  0  0  0
  2 11  1  0  0  0
  2 13  1  0  0  0
  3 10  1  0  0  0
  3 11  1  0  0  0
  3 14  1  0  0  0
  4 30  3  0  0  0
  5  6  1  0  0  0
  5  7  1  0  0  0
  5 10  1  0  0  0
  6  8  1  0  0  0
  6 37  1  0  0  0
  6 38  1  0  0  0
  7  9  1  0  0  0
  7 39  1  0  0  0
  7 40  1  0  0  0
  8 41  1  0  0  0
  8 42  1  0  0  0
  8 73  1  0  0  0
  9 43  1  0  0  0
  9 44  1  0  0  0
  9 73  1  0  0  0
 11 45  1  0  0  0
 11 46  1  0  0  0
 12 15  1  0  0  0
 12 47  1  0  0  0
 12 48  1  0  0  0
 12 73  1  0  0  0
 13 18  2  0  0  0
 13 19  1  0  0  0
 14 16  1  0  0  0
 14 49  1  0  0  0
 14 50  1  0  0  0
 15 17  1  0  0  0
 15 51  1  0  0  0
 15 52  1  0  0  0
 16 20  1  0  0  0
 16 53  1  0  0  0
 16 54  1  0  0  0
 17 21  1  0  0  0
 17 22  1  0  0  0
 17 55  1  0  0  0
 18 23  1  0  0  0
 18 56  1  0  0  0
 19 24  2  0  0  0
 19 57  1  0  0  0
 20 30  1  0  0  0
 20 58  1  0  0  0
 20 59  1  0  0  0
 21 26  2  0  0  0
 21 28  1  0  0  0
 22 27  2  0  0  0
 22 29  1  0  0  0
 23 25  2  0  0  0
 23 60  1  0  0  0
 24 25  1  0  0  0
 24 61  1  0  0  0
 25 62  1  0  0  0
 26 31  1  0  0  0
 26 63  1  0  0  0
 27 32  1  0  0  0
 27 64  1  0  0  0
 28 33  2  0  0  0
 28 65  1  0  0  0
 29 34  2  0  0  0
 29 66  1  0  0  0
 31 35  2  0  0  0
 31 67  1  0  0  0
 32 36  2  0  0  0
 32 68  1  0  0  0
 33 35  1  0  0  0
 33 69  1  0  0  0
 34 36  1  0  0  0
 34 70  1  0  0  0
 35 71  1  0  0  0
 36 72  1  0  0  0
 73 74  1  0  0  0
M  CHG  1  73   1
M  END
> <LID>
L022593

> <PC_CID>
10051350

> <Names>


> <CAS_Numbers>


$$$$
23190310
                    3D
 Structure written by MMmdl.
 59 62  0  0  1  0            999 V2000
   -6.5756   -1.6514   -1.0649 Cl  0  0  0  0  0  0
   -7.8110    0.6726    0.7360 Cl  0  0  0  0  0  0
    3.1972   -5.2830   -2.0387 O   0  0  0  0  0  0
   -1.5558   -0.4954    1.1482 O   0  0  0  0  0  0
    0.3160    0.1816    0.0687 N   0  0  0  0  0  0
    1.2161   -0.3733    1.1019 C   0  0  1  0  0  0
    1.9141    1.9720   -0.6546 C   0  0  0  0  0  0
    0.9965    0.8048   -1.0775 C   0  0  0  0  0  0
    1.4570   -1.8945    0.8916 C   0  0  0  0  0  0
    2.4971    0.4354    1.3175 C   0  0  0  0  0  0
    2.8343    1.5426    0.4944 C   0  0  0  0  0  0
    1.8560   -3.6118   -0.8633 C   0  0  0  0  0  0
    3.5846   -2.0232   -0.4482 C   0  0  0  0  0  0
    2.9815   -3.9001   -1.8529 C   0  0  1  0  0  0
    4.1824   -3.2195   -1.2013 C   0  0  0  0  0  0
    1.0577    3.1656   -0.1857 C   0  0  0  0  0  0
    2.7177    2.3963   -1.9051 C   0  0  0  0  0  0
   -1.0340    0.1085    0.2086 C   0  0  0  0  0  0
    3.3402    0.0862    2.3969 C   0  0  0  0  0  0
    4.0133    2.2737    0.7775 C   0  0  0  0  0  0
    4.5172    0.8098    2.6548 C   0  0  0  0  0  0
    4.8536    1.9058    1.8437 C   0  0  0  0  0  0
   -1.9415    0.8011   -0.8278 C   0  0  0  0  0  0
   -3.4128    0.7632   -0.4403 C   0  0  0  0  0  0
   -4.2352   -0.2973   -0.8760 C   0  0  0  0  0  0
   -3.9637    1.7901    0.3546 C   0  0  0  0  0  0
   -5.5974   -0.3365   -0.5177 C   0  0  0  0  0  0
   -5.3247    1.7534    0.7134 C   0  0  0  0  0  0
   -6.1445    0.6927    0.2801 C   0  0  0  0  0  0
    0.7156   -0.2745    2.0674 H   0  0  0  0  0  0
    1.5980    0.0395   -1.5647 H   0  0  0  0  0  0
    0.3202    1.1421   -1.8610 H   0  0  0  0  0  0
    2.0129   -2.3307    1.7220 H   0  0  0  0  0  0
    0.4848   -2.3896    0.9074 H   0  0  0  0  0  0
    1.9153   -4.2995   -0.0171 H   0  0  0  0  0  0
    0.8658   -3.7075   -1.3102 H   0  0  0  0  0  0
    3.7911   -1.0866   -0.9671 H   0  0  0  0  0  0
    4.0270   -1.9546    0.5460 H   0  0  0  0  0  0
    2.7645   -3.4291   -2.8130 H   0  0  0  0  0  0
    4.6528   -3.8944   -0.4840 H   0  0  0  0  0  0
    4.9430   -2.9265   -1.9257 H   0  0  0  0  0  0
    1.6803    4.0194    0.0837 H   0  0  0  0  0  0
    0.3727    3.4958   -0.9673 H   0  0  0  0  0  0
    0.4595    2.9125    0.6903 H   0  0  0  0  0  0
    3.3079    3.2969   -1.7394 H   0  0  0  0  0  0
    3.3986    1.6072   -2.2264 H   0  0  0  0  0  0
    2.0544    2.6149   -2.7428 H   0  0  0  0  0  0
    3.0850   -0.7416    3.0419 H   0  0  0  0  0  0
    4.2870    3.1358    0.1897 H   0  0  0  0  0  0
    5.1550    0.5314    3.4809 H   0  0  0  0  0  0
    5.7506    2.4726    2.0456 H   0  0  0  0  0  0
   -1.6426    1.8439   -0.9404 H   0  0  0  0  0  0
   -1.8186    0.3191   -1.7984 H   0  0  0  0  0  0
    2.4423   -5.6572   -2.4678 H   0  0  0  0  0  0
   -3.8206   -1.0879   -1.4843 H   0  0  0  0  0  0
   -3.3432    2.6066    0.6945 H   0  0  0  0  0  0
   -5.7401    2.5418    1.3238 H   0  0  0  0  0  0
    2.1163   -2.2360   -0.3941 N   0  3  2  0  0  0
    1.7168   -1.6331   -1.0987 H   0  0  0  0  0  0
  1 27  1  0  0  0
  2 29  1  0  0  0
  3 14  1  0  0  0
  3 54  1  0  0  0
  4 18  2  0  0  0
  5  6  1  0  0  0
  5  8  1  0  0  0
  5 18  1  0  0  0
  6  9  1  0  0  0
  6 10  1  0  0  0
  6 30  1  0  0  0
  7  8  1  0  0  0
  7 11  1  0  0  0
  7 16  1  0  0  0
  7 17  1  0  0  0
  8 31  1  0  0  0
  8 32  1  0  0  0
  9 33  1  0  0  0
  9 34  1  0  0  0
  9 58  1  0  0  0
 10 11  1  0  0  0
 10 19  2  0  0  0
 11 20  2  0  0  0
 12 14  1  0  0  0
 12 35  1  0  0  0
 12 36  1  0  0  0
 12 58  1  0  0  0
 13 15  1  0  0  0
 13 37  1  0  0  0
 13 38  1  0  0  0
 13 58  1  0  0  0
 14 15  1  0  0  0
 14 39  1  0  0  0
 15 40  1  0  0  0
 15 41  1  0  0  0
 16 42  1  0  0  0
 16 43  1  0  0  0
 16 44  1  0  0  0
 17 45  1  0  0  0
 17 46  1  0  0  0
 17 47  1  0  0  0
 18 23  1  0  0  0
 19 21  1  0  0  0
 19 48  1  0  0  0
 20 22  1  0  0  0
 20 49  1  0  0  0
 21 22  2  0  0  0
 21 50  1  0  0  0
 22 51  1  0  0  0
 23 24  1  0  0  0
 23 52  1  0  0  0
 23 53  1  0  0  0
 24 25  2  0  0  0
 24 26  1  0  0  0
 25 27  1  0  0  0
 25 55  1  0  0  0
 26 28  2  0  0  0
 26 56  1  0  0  0
 27 29  2  0  0  0
 28 29  1  0  0  0
 28 57  1  0  0  0
 58 59  1  0  0  0
M  CHG  1  58   1
M  END
> <LID>
L005491

> <PC_CID>
23190310

> <Names>


> <CAS_Numbers>


$$$$
23190317
                    3D
 Structure written by MMmdl.
 51 53  0  0  1  0            999 V2000
    6.6072   -2.9379   -1.3949 F   0  0  0  0  0  0
   -6.8180    0.1438    1.1438 F   0  0  0  0  0  0
   -6.7448   -1.0396   -0.6623 F   0  0  0  0  0  0
   -5.8416   -1.7912    1.1590 F   0  0  0  0  0  0
    0.0767   -0.0347    0.2805 O   0  0  0  0  0  0
    1.5612    1.4141   -0.6680 N   0  0  0  0  0  0
    2.8341    0.8341   -0.1586 C   0  0  2  0  0  0
    2.8127   -0.6651    0.2473 C   0  0  0  0  0  0
    3.3526    1.7458    0.9776 C   0  0  0  0  0  0
    3.5562    3.1884    0.4832 C   0  0  0  0  0  0
    5.0724   -1.2877   -0.6322 C   0  0  0  0  0  0
    4.1557   -2.5433    1.1857 C   0  0  0  0  0  0
    1.8215    2.7191   -1.3073 C   0  0  0  0  0  0
    2.3106    3.7189   -0.2442 C   0  0  0  0  0  0
    6.0361   -2.4236   -0.3066 C   0  0  1  0  0  0
    5.1411   -3.4258    0.4099 C   0  0  0  0  0  0
    0.3011    0.9683   -0.3968 C   0  0  0  0  0  0
   -0.9061    1.7463   -0.9622 C   0  0  0  0  0  0
   -2.2433    1.1140   -0.6014 C   0  0  0  0  0  0
   -2.8241    0.1475   -1.4490 C   0  0  0  0  0  0
   -2.9112    1.4920    0.5822 C   0  0  0  0  0  0
   -4.0610   -0.4368   -1.1146 C   0  0  0  0  0  0
   -4.1481    0.9070    0.9157 C   0  0  0  0  0  0
   -4.7339   -0.0574    0.0672 C   0  0  0  0  0  0
   -6.0655   -0.6968    0.4328 C   0  0  0  0  0  0
    3.5412    0.9050   -0.9859 H   0  0  0  0  0  0
    2.3400   -1.2714   -0.5274 H   0  0  0  0  0  0
    2.2285   -0.7866    1.1601 H   0  0  0  0  0  0
    2.6433    1.7379    1.8066 H   0  0  0  0  0  0
    4.2963    1.3739    1.3767 H   0  0  0  0  0  0
    3.8132    3.8419    1.3174 H   0  0  0  0  0  0
    4.4056    3.2143   -0.2006 H   0  0  0  0  0  0
    5.5887   -0.3441   -0.8118 H   0  0  0  0  0  0
    4.5021   -1.5373   -1.5289 H   0  0  0  0  0  0
    3.1631   -2.9964    1.2035 H   0  0  0  0  0  0
    4.4791   -2.4220    2.2201 H   0  0  0  0  0  0
    2.5878    2.5979   -2.0743 H   0  0  0  0  0  0
    0.9741    3.1414   -1.8434 H   0  0  0  0  0  0
    2.5317    4.6814   -0.7065 H   0  0  0  0  0  0
    1.5138    3.8992    0.4787 H   0  0  0  0  0  0
    6.8313   -2.0771    0.3552 H   0  0  0  0  0  0
    4.5965   -4.0231   -0.3231 H   0  0  0  0  0  0
    5.6972   -4.1102    1.0515 H   0  0  0  0  0  0
   -0.8932    2.7687   -0.5824 H   0  0  0  0  0  0
   -0.8297    1.7988   -2.0490 H   0  0  0  0  0  0
   -2.3199   -0.1524   -2.3560 H   0  0  0  0  0  0
   -2.4740    2.2283    1.2408 H   0  0  0  0  0  0
   -4.4904   -1.1807   -1.7693 H   0  0  0  0  0  0
   -4.6446    1.2009    1.8287 H   0  0  0  0  0  0
    4.1636   -1.2090    0.5342 N   0  3  2  0  0  0
    4.5989   -0.5842    1.1980 H   0  0  0  0  0  0
  1 15  1  0  0  0
  2 25  1  0  0  0
  3 25  1  0  0  0
  4 25  1  0  0  0
  5 17  2  0  0  0
  6  7  1  0  0  0
  6 13  1  0  0  0
  6 17  1  0  0  0
  7  8  1  0  0  0
  7  9  1  0  0  0
  7 26  1  0  0  0
  8 27  1  0  0  0
  8 28  1  0  0  0
  8 50  1  0  0  0
  9 10  1  0  0  0
  9 29  1  0  0  0
  9 30  1  0  0  0
 10 14  1  0  0  0
 10 31  1  0  0  0
 10 32  1  0  0  0
 11 15  1  0  0  0
 11 33  1  0  0  0
 11 34  1  0  0  0
 11 50  1  0  0  0
 12 16  1  0  0  0
 12 35  1  0  0  0
 12 36  1  0  0  0
 12 50  1  0  0  0
 13 14  1  0  0  0
 13 37  1  0  0  0
 13 38  1  0  0  0
 14 39  1  0  0  0
 14 40  1  0  0  0
 15 16  1  0  0  0
 15 41  1  0  0  0
 16 42  1  0  0  0
 16 43  1  0  0  0
 17 18  1  0  0  0
 18 19  1  0  0  0
 18 44  1  0  0  0
 18 45  1  0  0  0
 19 20  2  0  0  0
 19 21  1  0  0  0
 20 22  1  0  0  0
 20 46  1  0  0  0
 21 23  2  0  0  0
 21 47  1  0  0  0
 22 24  2  0  0  0
 22 48  1  0  0  0
 23 24  1  0  0  0
 23 49  1  0  0  0
 24 25  1  0  0  0
 50 51  1  0  0  0
M  CHG  1  50   1
M  END
> <LID>
L008000

> <PC_CID>
23190317

> <Names>


> <CAS_Numbers>


$$$$
23190316
                    3D
 Structure written by MMmdl.
 58 60  0  0  1  0            999 V2000
    6.5603   -2.7889    0.9775 F   0  0  0  0  0  0
    6.9366   -1.5553   -0.7559 F   0  0  0  0  0  0
    6.4195   -0.6319    1.1355 F   0  0  0  0  0  0
   -2.3983    6.2065   -1.2765 O   0  0  0  0  0  0
    0.2745    0.1531    0.3412 O   0  0  0  0  0  0
   -1.6895   -0.6956   -0.4092 N   0  0  0  0  0  0
   -3.6295   -0.4308    1.1447 C   0  0  0  0  0  0
   -2.5075    0.3043    0.3265 C   0  0  2  0  0  0
   -4.4450   -1.3684    0.2252 C   0  0  0  0  0  0
   -2.9754    1.4069   -0.6730 C   0  0  0  0  0  0
   -3.5549   -2.3375   -0.5593 C   0  0  0  0  0  0
   -2.4504   -1.5875   -1.3103 C   0  0  0  0  0  0
   -2.9742   -1.2550    2.2807 C   0  0  0  0  0  0
   -4.6074    0.5434    1.8329 C   0  0  0  0  0  0
   -2.5590    3.7582   -1.4001 C   0  0  0  0  0  0
   -3.2078    3.3967    0.8661 C   0  0  0  0  0  0
   -3.0997    5.0713   -0.8137 C   0  0  1  0  0  0
   -2.9726    4.8937    0.6958 C   0  0  0  0  0  0
   -0.3339   -0.7030   -0.3050 C   0  0  0  0  0  0
    0.4706   -1.8183   -1.0021 C   0  0  0  0  0  0
    1.9522   -1.7823   -0.6550 C   0  0  0  0  0  0
    2.8558   -1.0676   -1.4688 C   0  0  0  0  0  0
    2.4315   -2.4653    0.4824 C   0  0  0  0  0  0
    4.2264   -1.0350   -1.1466 C   0  0  0  0  0  0
    3.8022   -2.4320    0.8038 C   0  0  0  0  0  0
    4.7097   -1.7211   -0.0113 C   0  0  0  0  0  0
    6.1892   -1.6769    0.3418 C   0  0  0  0  0  0
   -1.8988    0.8027    1.0825 H   0  0  0  0  0  0
   -5.1739   -1.9342    0.8071 H   0  0  0  0  0  0
   -5.0255   -0.7764   -0.4834 H   0  0  0  0  0  0
   -2.5432    1.2159   -1.6564 H   0  0  0  0  0  0
   -4.0536    1.3919   -0.8292 H   0  0  0  0  0  0
   -3.1113   -3.0736    0.1112 H   0  0  0  0  0  0
   -4.1622   -2.9045   -1.2656 H   0  0  0  0  0  0
   -2.9021   -0.9878   -2.1003 H   0  0  0  0  0  0
   -1.8406   -2.3200   -1.8349 H   0  0  0  0  0  0
   -3.7185   -1.8195    2.8435 H   0  0  0  0  0  0
   -2.2383   -1.9703    1.9149 H   0  0  0  0  0  0
   -2.4568   -0.6075    2.9895 H   0  0  0  0  0  0
   -5.3324    0.0015    2.4416 H   0  0  0  0  0  0
   -4.0886    1.2303    2.5004 H   0  0  0  0  0  0
   -5.1850    1.1265    1.1175 H   0  0  0  0  0  0
   -1.5434    3.8707   -1.7821 H   0  0  0  0  0  0
   -3.1874    3.4295   -2.2296 H   0  0  0  0  0  0
   -2.8181    3.0258    1.8139 H   0  0  0  0  0  0
   -4.2791    3.1997    0.8247 H   0  0  0  0  0  0
   -4.1540    5.1754   -1.0753 H   0  0  0  0  0  0
   -1.9656    5.1477    1.0312 H   0  0  0  0  0  0
   -3.6807    5.5040    1.2575 H   0  0  0  0  0  0
    0.0729   -2.7920   -0.7126 H   0  0  0  0  0  0
    0.3583   -1.7268   -2.0831 H   0  0  0  0  0  0
   -1.4926    6.1396   -1.0144 H   0  0  0  0  0  0
    2.4998   -0.5377   -2.3402 H   0  0  0  0  0  0
    1.7479   -3.0127    1.1150 H   0  0  0  0  0  0
    4.9058   -0.4779   -1.7747 H   0  0  0  0  0  0
    4.1538   -2.9536    1.6817 H   0  0  0  0  0  0
   -2.5314    2.7733   -0.2905 N   0  3  1  0  0  0
   -1.5573    2.6954   -0.0325 H   0  0  0  0  0  0
  1 27  1  0  0  0
  2 27  1  0  0  0
  3 27  1  0  0  0
  4 17  1  0  0  0
  4 52  1  0  0  0
  5 19  2  0  0  0
  6  8  1  0  0  0
  6 12  1  0  0  0
  6 19  1  0  0  0
  7  8  1  0  0  0
  7  9  1  0  0  0
  7 13  1  0  0  0
  7 14  1  0  0  0
  8 10  1  0  0  0
  8 28  1  0  0  0
  9 11  1  0  0  0
  9 29  1  0  0  0
  9 30  1  0  0  0
 10 31  1  0  0  0
 10 32  1  0  0  0
 10 57  1  0  0  0
 11 12  1  0  0  0
 11 33  1  0  0  0
 11 34  1  0  0  0
 12 35  1  0  0  0
 12 36  1  0  0  0
 13 37  1  0  0  0
 13 38  1  0  0  0
 13 39  1  0  0  0
 14 40  1  0  0  0
 14 41  1  0  0  0
 14 42  1  0  0  0
 15 17  1  0  0  0
 15 43  1  0  0  0
 15 44  1  0  0  0
 15 57  1  0  0  0
 16 18  1  0  0  0
 16 45  1  0  0  0
 16 46  1  0  0  0
 16 57  1  0  0  0
 17 18  1  0  0  0
 17 47  1  0  0  0
 18 48  1  0  0  0
 18 49  1  0  0  0
 19 20  1  0  0  0
 20 21  1  0  0  0
 20 50  1  0  0  0
 20 51  1  0  0  0
 21 22  2  0  0  0
 21 23  1  0  0  0
 22 24  1  0  0  0
 22 53  1  0  0  0
 23 25  2  0  0  0
 23 54  1  0  0  0
 24 26  2  0  0  0
 24 55  1  0  0  0
 25 26  1  0  0  0
 25 56  1  0  0  0
 26 27  1  0  0  0
 57 58  1  0  0  0
M  CHG  1  57   1
M  END
> <LID>
L005485

> <PC_CID>
23190316

> <Names>


> <CAS_Numbers>


$$$$
44215692
                    3D
 Structure written by MMmdl.
 71 77  0  0  1  0            999 V2000
    0.4446    0.0350   -0.5019 O   0  0  0  0  0  0
   -1.5120    3.1002   -0.8163 O   0  0  0  0  0  0
   -0.1574    2.4933   -3.1715 O   0  0  0  0  0  0
   -0.7732    4.9475    1.3703 O   0  0  0  0  0  0
   -1.8725    0.7388   -0.4539 C   0  0  1  0  0  0
   -0.9029   -0.4492   -0.6637 C   0  0  2  0  0  0
   -1.2115   -1.4340    0.5064 C   0  0  1  0  0  0
   -1.8100    1.8766   -1.5171 C   0  0  2  0  0  0
   -3.3579    0.2854   -0.3680 C   0  0  0  0  0  0
   -1.4296    1.4310    0.7880 C   0  0  0  0  0  0
   -1.0681   -0.9519   -2.1186 C   0  0  0  0  0  0
   -0.9373   -0.7516    1.8965 C   0  0  0  0  0  0
   -3.6130   -0.8639    0.6105 C   0  0  0  0  0  0
   -1.0674    0.7818    1.9805 C   0  0  0  0  0  0
   -0.7129    0.1414   -3.1662 C   0  0  0  0  0  0
   -0.8227    1.5949   -2.6605 C   0  0  0  0  0  0
   -1.3069    2.7761    0.4979 C   0  0  0  0  0  0
   -2.8771   -3.1483    1.2382 C   0  0  0  0  0  0
   -3.9516   -4.0338    0.6115 C   0  0  0  0  0  0
   -0.6682    1.6319    3.0334 C   0  0  0  0  0  0
   -4.2767   -5.3887    1.2593 C   0  0  0  0  0  0
   -3.6343   -4.8171   -0.6725 C   0  0  0  0  0  0
   -0.9070    3.6046    1.5664 C   0  0  0  0  0  0
    1.5426   -0.8594   -0.6536 C   0  0  0  0  0  0
   -4.5114   -5.9541   -0.1434 C   0  0  0  0  0  0
   -0.6181    3.0355    2.8334 C   0  0  0  0  0  0
    2.8248   -0.0641   -0.3884 C   0  0  0  0  0  0
    4.0907   -0.9217   -0.5246 C   0  0  0  0  0  0
    5.3536   -0.1249   -0.2584 C   0  0  0  0  0  0
    5.8810   -0.0475    1.0479 C   0  0  0  0  0  0
    6.0034    0.5473   -1.3150 C   0  0  0  0  0  0
    7.0519    0.6955    1.2952 C   0  0  0  0  0  0
    7.1742    1.2902   -1.0670 C   0  0  0  0  0  0
    7.6989    1.3641    0.2379 C   0  0  0  0  0  0
   -0.5720   -2.3103    0.4085 H   0  0  0  0  0  0
   -2.7855    2.0121   -1.9851 H   0  0  0  0  0  0
   -3.6993   -0.0301   -1.3542 H   0  0  0  0  0  0
   -3.9941    1.1307   -0.1008 H   0  0  0  0  0  0
   -2.0904   -1.2846   -2.2928 H   0  0  0  0  0  0
   -0.4633   -1.8408   -2.2942 H   0  0  0  0  0  0
    0.0992   -0.9621    2.1620 H   0  0  0  0  0  0
   -1.5253   -1.2034    2.6949 H   0  0  0  0  0  0
   -3.5907   -0.5016    1.6387 H   0  0  0  0  0  0
   -4.6203   -1.2471    0.4500 H   0  0  0  0  0  0
   -1.3265    0.0224   -4.0593 H   0  0  0  0  0  0
    0.3200   -0.0030   -3.4842 H   0  0  0  0  0  0
   -3.1636   -2.8543    2.2488 H   0  0  0  0  0  0
   -1.9632   -3.7334    1.3477 H   0  0  0  0  0  0
   -4.8905   -3.4941    0.4758 H   0  0  0  0  0  0
   -0.3565    1.2124    3.9786 H   0  0  0  0  0  0
   -5.1563   -5.3876    1.9040 H   0  0  0  0  0  0
   -3.4167   -5.8418    1.7557 H   0  0  0  0  0  0
   -2.5830   -5.0998   -0.7513 H   0  0  0  0  0  0
   -3.9945   -4.3529   -1.5911 H   0  0  0  0  0  0
    1.4836   -1.6891    0.0491 H   0  0  0  0  0  0
    1.5796   -1.2742   -1.6600 H   0  0  0  0  0  0
   -4.1115   -6.9554   -0.3066 H   0  0  0  0  0  0
   -5.5511   -5.8734   -0.4651 H   0  0  0  0  0  0
   -0.3000    3.6748    3.6439 H   0  0  0  0  0  0
    2.8763    0.7761   -1.0823 H   0  0  0  0  0  0
    2.7803    0.3651    0.6136 H   0  0  0  0  0  0
   -0.9671    5.2026    0.4809 H   0  0  0  0  0  0
    4.0485   -1.7637    0.1676 H   0  0  0  0  0  0
    4.1457   -1.3510   -1.5259 H   0  0  0  0  0  0
    5.3886   -0.5562    1.8638 H   0  0  0  0  0  0
    5.6049    0.4965   -2.3178 H   0  0  0  0  0  0
    7.4535    0.7530    2.2962 H   0  0  0  0  0  0
    7.6695    1.8038   -1.8779 H   0  0  0  0  0  0
    8.5965    1.9340    0.4278 H   0  0  0  0  0  0
   -2.6131   -1.9405    0.4125 N   0  3  2  0  0  0
   -2.7155   -2.2541   -0.5423 H   0  0  0  0  0  0
  1  6  1  0  0  0
  1 24  1  0  0  0
  2  8  1  0  0  0
  2 17  1  0  0  0
  3 16  2  0  0  0
  4 23  1  0  0  0
  4 62  1  0  0  0
  5  6  1  0  0  0
  5  8  1  0  0  0
  5  9  1  0  0  0
  5 10  1  0  0  0
  6  7  1  0  0  0
  6 11  1  0  0  0
  7 12  1  0  0  0
  7 35  1  0  0  0
  7 70  1  0  0  0
  8 16  1  0  0  0
  8 36  1  0  0  0
  9 13  1  0  0  0
  9 37  1  0  0  0
  9 38  1  0  0  0
 10 14  2  0  0  0
 10 17  1  0  0  0
 11 15  1  0  0  0
 11 39  1  0  0  0
 11 40  1  0  0  0
 12 14  1  0  0  0
 12 41  1  0  0  0
 12 42  1  0  0  0
 13 43  1  0  0  0
 13 44  1  0  0  0
 13 70  1  0  0  0
 14 20  1  0  0  0
 15 16  1  0  0  0
 15 45  1  0  0  0
 15 46  1  0  0  0
 17 23  2  0  0  0
 18 19  1  0  0  0
 18 47  1  0  0  0
 18 48  1  0  0  0
 18 70  1  0  0  0
 19 21  1  0  0  0
 19 22  1  0  0  0
 19 49  1  0  0  0
 20 26  2  0  0  0
 20 50  1  0  0  0
 21 25  1  0  0  0
 21 51  1  0  0  0
 21 52  1  0  0  0
 22 25  1  0  0  0
 22 53  1  0  0  0
 22 54  1  0  0  0
 23 26  1  0  0  0
 24 27  1  0  0  0
 24 55  1  0  0  0
 24 56  1  0  0  0
 25 57  1  0  0  0
 25 58  1  0  0  0
 26 59  1  0  0  0
 27 28  1  0  0  0
 27 60  1  0  0  0
 27 61  1  0  0  0
 28 29  1  0  0  0
 28 63  1  0  0  0
 28 64  1  0  0  0
 29 30  2  0  0  0
 29 31  1  0  0  0
 30 32  1  0  0  0
 30 65  1  0  0  0
 31 33  2  0  0  0
 31 66  1  0  0  0
 32 34  2  0  0  0
 32 67  1  0  0  0
 33 34  1  0  0  0
 33 68  1  0  0  0
 34 69  1  0  0  0
 70 71  1  0  0  0
M  CHG  1  70   1
M  END
> <LID>
L022105

> <PC_CID>
44215692

> <Names>


> <CAS_Numbers>


$$$$
10371193
                    3D
 Structure written by MMmdl.
 81 85  0  0  1  0            999 V2000
    5.8715   -3.0531   -0.5029 O   0  0  0  0  0  0
    6.6297   -5.2193   -0.6600 O   0  0  0  0  0  0
    3.4384   -5.3195    0.3929 O   0  0  0  0  0  0
    3.0719   -6.1009   -2.2918 O   0  0  0  0  0  0
    5.4832   -7.8032   -2.5064 O   0  0  0  0  0  0
    5.1930    3.5066   -1.1234 O   0  0  0  0  0  0
    7.5273   -7.3873    1.3814 O   0  0  0  0  0  0
    7.1985    3.3430   -0.0760 N   0  0  0  0  0  0
    7.0605   -2.4829    0.0298 C   0  0  1  0  0  0
    7.3226   -1.1182   -0.6043 C   0  0  0  0  0  0
    6.9523   -2.1371    1.5177 C   0  0  0  0  0  0
    7.9446   -0.9853    1.7137 C   0  0  0  0  0  0
    8.3148    1.0685    0.2625 C   0  0  0  0  0  0
    5.6418   -4.3743   -0.1277 C   0  0  2  0  0  0
    4.2319   -4.7743   -0.6473 C   0  0  1  0  0  0
    6.9926    1.9008    0.2241 C   0  0  1  0  0  0
    4.3631   -5.7647   -1.8216 C   0  0  1  0  0  0
    5.1297   -7.0230   -1.3803 C   0  0  2  0  0  0
    6.4108   -6.6332   -0.5836 C   0  0  2  0  0  0
    6.1067    1.7134    1.4555 C   0  0  0  0  0  0
    6.2472    4.0363   -0.7629 C   0  0  0  0  0  0
    6.4132   -7.1287    0.8770 C   0  0  0  0  0  0
    8.4344    3.9822    0.4072 C   0  0  0  0  0  0
    6.4684    5.5326   -1.1093 C   0  0  0  0  0  0
    6.4475    2.3012    2.6950 C   0  0  0  0  0  0
    4.9202    0.9530    1.3584 C   0  0  0  0  0  0
    5.7458    5.9261   -2.4005 C   0  0  0  0  0  0
    6.1426    6.4653    0.0639 C   0  0  0  0  0  0
    5.6214    2.1195    3.8207 C   0  0  0  0  0  0
    4.0952    0.7702    2.4845 C   0  0  0  0  0  0
    4.4462    1.3522    3.7168 C   0  0  0  0  0  0
    6.9278    7.6245    0.2505 C   0  0  0  0  0  0
    6.4584    5.9430   -3.6206 C   0  0  0  0  0  0
    5.0785    6.2074    0.9628 C   0  0  0  0  0  0
    4.3746    6.2742   -2.4017 C   0  0  0  0  0  0
    5.8141    6.3034   -4.8200 C   0  0  0  0  0  0
    6.6644    8.5051    1.3173 C   0  0  0  0  0  0
    3.7305    6.6342   -3.6012 C   0  0  0  0  0  0
    4.8157    7.0879    2.0298 C   0  0  0  0  0  0
    4.4499    6.6498   -4.8108 C   0  0  0  0  0  0
    5.6091    8.2364    2.2087 C   0  0  0  0  0  0
    7.9259   -3.1247   -0.1455 H   0  0  0  0  0  0
    7.7926   -1.1947   -1.5851 H   0  0  0  0  0  0
    6.3673   -0.6138   -0.7296 H   0  0  0  0  0  0
    5.9428   -1.7901    1.7418 H   0  0  0  0  0  0
    7.1632   -2.9863    2.1684 H   0  0  0  0  0  0
    8.8937   -1.3609    2.0973 H   0  0  0  0  0  0
    7.5736   -0.2622    2.4374 H   0  0  0  0  0  0
    8.9546    1.3713    1.0899 H   0  0  0  0  0  0
    8.8781    1.2724   -0.6490 H   0  0  0  0  0  0
    5.6724   -4.4309    0.9618 H   0  0  0  0  0  0
    3.7200   -3.8727   -0.9875 H   0  0  0  0  0  0
    6.4442    1.4994   -0.6266 H   0  0  0  0  0  0
    4.8995   -5.2764   -2.6372 H   0  0  0  0  0  0
    4.4696   -7.6536   -0.7834 H   0  0  0  0  0  0
    7.2788   -7.0917   -1.0608 H   0  0  0  0  0  0
    3.9322   -6.0147    0.8139 H   0  0  0  0  0  0
    2.5528   -6.3670   -1.5470 H   0  0  0  0  0  0
    8.2709    4.9996    0.7584 H   0  0  0  0  0  0
    8.8773    3.4749    1.2601 H   0  0  0  0  0  0
    9.1789    4.0125   -0.3889 H   0  0  0  0  0  0
    4.6951   -7.9812   -2.9974 H   0  0  0  0  0  0
    7.5282    5.6625   -1.3294 H   0  0  0  0  0  0
    7.3450    2.8908    2.7969 H   0  0  0  0  0  0
    4.6326    0.5052    0.4186 H   0  0  0  0  0  0
    5.8899    2.5695    4.7652 H   0  0  0  0  0  0
    3.1911    0.1850    2.4018 H   0  0  0  0  0  0
    3.8127    1.2131    4.5806 H   0  0  0  0  0  0
    7.7396    7.8440   -0.4276 H   0  0  0  0  0  0
    7.5053    5.6780   -3.6439 H   0  0  0  0  0  0
    4.4503    5.3370    0.8427 H   0  0  0  0  0  0
    3.8048    6.2611   -1.4850 H   0  0  0  0  0  0
    6.3669    6.3136   -5.7477 H   0  0  0  0  0  0
    7.2722    9.3879    1.4511 H   0  0  0  0  0  0
    2.6830    6.8970   -3.5928 H   0  0  0  0  0  0
    4.0027    6.8824    2.7105 H   0  0  0  0  0  0
    3.9555    6.9257   -5.7306 H   0  0  0  0  0  0
    5.4065    8.9119    3.0267 H   0  0  0  0  0  0
    5.3194   -7.1891    1.4829 O   0  5  0  0  0  0
    8.1881   -0.4140    0.3678 N   0  3  2  0  0  0
    9.1150   -0.7514    0.1486 H   0  0  0  0  0  0
  1  9  1  0  0  0
  1 14  1  0  0  0
  2 14  1  0  0  0
  2 19  1  0  0  0
  3 15  1  0  0  0
  3 57  1  0  0  0
  4 17  1  0  0  0
  4 58  1  0  0  0
  5 18  1  0  0  0
  5 62  1  0  0  0
  6 21  2  0  0  0
  7 22  2  0  0  0
  8 16  1  0  0  0
  8 21  1  0  0  0
  8 23  1  0  0  0
  9 10  1  0  0  0
  9 11  1  0  0  0
  9 42  1  0  0  0
 10 43  1  0  0  0
 10 44  1  0  0  0
 10 80  1  0  0  0
 11 12  1  0  0  0
 11 45  1  0  0  0
 11 46  1  0  0  0
 12 47  1  0  0  0
 12 48  1  0  0  0
 12 80  1  0  0  0
 13 16  1  0  0  0
 13 49  1  0  0  0
 13 50  1  0  0  0
 13 80  1  0  0  0
 14 15  1  0  0  0
 14 51  1  0  0  0
 15 17  1  0  0  0
 15 52  1  0  0  0
 16 20  1  0  0  0
 16 53  1  0  0  0
 17 18  1  0  0  0
 17 54  1  0  0  0
 18 19  1  0  0  0
 18 55  1  0  0  0
 19 22  1  0  0  0
 19 56  1  0  0  0
 20 25  2  0  0  0
 20 26  1  0  0  0
 21 24  1  0  0  0
 22 79  1  0  0  0
 23 59  1  0  0  0
 23 60  1  0  0  0
 23 61  1  0  0  0
 24 27  1  0  0  0
 24 28  1  0  0  0
 24 63  1  0  0  0
 25 29  1  0  0  0
 25 64  1  0  0  0
 26 30  2  0  0  0
 26 65  1  0  0  0
 27 33  2  0  0  0
 27 35  1  0  0  0
 28 32  2  0  0  0
 28 34  1  0  0  0
 29 31  2  0  0  0
 29 66  1  0  0  0
 30 31  1  0  0  0
 30 67  1  0  0  0
 31 68  1  0  0  0
 32 37  1  0  0  0
 32 69  1  0  0  0
 33 36  1  0  0  0
 33 70  1  0  0  0
 34 39  2  0  0  0
 34 71  1  0  0  0
 35 38  2  0  0  0
 35 72  1  0  0  0
 36 40  2  0  0  0
 36 73  1  0  0  0
 37 41  2  0  0  0
 37 74  1  0  0  0
 38 40  1  0  0  0
 38 75  1  0  0  0
 39 41  1  0  0  0
 39 76  1  0  0  0
 40 77  1  0  0  0
 41 78  1  0  0  0
 80 81  1  0  0  0
M  CHG  2  79  -1  80   1
M  END
> <LID>
L023053

> <PC_CID>
10371193

> <Names>


> <CAS_Numbers>


$$$$
68616
                    3D
 Structure written by MMmdl.
 51 53  0  0  1  0            999 V2000
    4.9001   -3.0870    0.4936 Cl  0  0  0  0  0  0
    6.5159   -1.7920   -1.9318 Cl  0  0  0  0  0  0
    0.3838   -0.2194   -1.1327 O   0  0  0  0  0  0
   -0.7528    1.3737    0.0166 N   0  0  0  0  0  0
   -3.1632    0.4975    0.1428 C   0  0  1  0  0  0
   -2.0297    1.1632   -0.7048 C   0  0  1  0  0  0
   -4.4112    0.3160   -0.7687 C   0  0  0  0  0  0
   -2.4926    2.4778   -1.3760 C   0  0  0  0  0  0
   -4.8582    1.6270   -1.4346 C   0  0  0  0  0  0
   -3.7255    2.2497   -2.2566 C   0  0  0  0  0  0
   -3.7565   -1.8101    1.0363 C   0  0  0  0  0  0
   -1.9268   -0.6706    2.0232 C   0  0  0  0  0  0
   -3.1309   -2.7643    2.0450 C   0  0  0  0  0  0
   -2.3551   -1.8168    2.9488 C   0  0  0  0  0  0
   -0.7617    2.4009    1.0675 C   0  0  0  0  0  0
    0.3780    0.6921   -0.3030 C   0  0  0  0  0  0
    1.6934    1.0664    0.4103 C   0  0  0  0  0  0
    2.9013    0.3461   -0.1713 C   0  0  0  0  0  0
    3.3112   -0.8953    0.3597 C   0  0  0  0  0  0
    3.6197    0.9162   -1.2430 C   0  0  0  0  0  0
    4.4276   -1.5666   -0.1773 C   0  0  0  0  0  0
    4.7361    0.2476   -1.7809 C   0  0  0  0  0  0
    5.1430   -0.9931   -1.2518 C   0  0  0  0  0  0
   -3.4626    1.1713    0.9464 H   0  0  0  0  0  0
   -1.8575    0.4794   -1.5375 H   0  0  0  0  0  0
   -5.2630   -0.0600   -0.2031 H   0  0  0  0  0  0
   -4.2012   -0.4238   -1.5426 H   0  0  0  0  0  0
   -1.6865    2.8883   -1.9855 H   0  0  0  0  0  0
   -2.7315    3.2362   -0.6304 H   0  0  0  0  0  0
   -5.1888    2.3324   -0.6710 H   0  0  0  0  0  0
   -5.7202    1.4413   -2.0762 H   0  0  0  0  0  0
   -3.4705    1.5962   -3.0920 H   0  0  0  0  0  0
   -4.0544    3.1944   -2.6907 H   0  0  0  0  0  0
   -4.0780   -2.3233    0.1293 H   0  0  0  0  0  0
   -4.6265   -1.3409    1.4985 H   0  0  0  0  0  0
   -2.0855    0.2867    2.5205 H   0  0  0  0  0  0
   -0.8650   -0.7561    1.7961 H   0  0  0  0  0  0
   -2.4468   -3.4487    1.5410 H   0  0  0  0  0  0
   -3.8695   -3.3578    2.5848 H   0  0  0  0  0  0
   -3.0139   -1.4328    3.7290 H   0  0  0  0  0  0
   -1.5099   -2.3023    3.4379 H   0  0  0  0  0  0
   -0.2426    3.2980    0.7279 H   0  0  0  0  0  0
   -0.2809    2.0496    1.9809 H   0  0  0  0  0  0
   -1.7706    2.6965    1.3525 H   0  0  0  0  0  0
    1.8618    2.1416    0.3394 H   0  0  0  0  0  0
    1.6146    0.8217    1.4701 H   0  0  0  0  0  0
    2.7656   -1.3388    1.1798 H   0  0  0  0  0  0
    3.3146    1.8658   -1.6580 H   0  0  0  0  0  0
    5.2810    0.6885   -2.6027 H   0  0  0  0  0  0
   -2.7132   -0.7929    0.7654 N   0  3  0  0  0  0
   -2.0974   -1.2302    0.0940 H   0  0  0  0  0  0
  1 21  1  0  0  0
  2 23  1  0  0  0
  3 16  2  0  0  0
  4  6  1  0  0  0
  4 15  1  0  0  0
  4 16  1  0  0  0
  5  6  1  0  0  0
  5  7  1  0  0  0
  5 24  1  0  0  0
  5 50  1  0  0  0
  6  8  1  0  0  0
  6 25  1  0  0  0
  7  9  1  0  0  0
  7 26  1  0  0  0
  7 27  1  0  0  0
  8 10  1  0  0  0
  8 28  1  0  0  0
  8 29  1  0  0  0
  9 10  1  0  0  0
  9 30  1  0  0  0
  9 31  1  0  0  0
 10 32  1  0  0  0
 10 33  1  0  0  0
 11 13  1  0  0  0
 11 34  1  0  0  0
 11 35  1  0  0  0
 11 50  1  0  0  0
 12 14  1  0  0  0
 12 36  1  0  0  0
 12 37  1  0  0  0
 12 50  1  0  0  0
 13 14  1  0  0  0
 13 38  1  0  0  0
 13 39  1  0  0  0
 14 40  1  0  0  0
 14 41  1  0  0  0
 15 42  1  0  0  0
 15 43  1  0  0  0
 15 44  1  0  0  0
 16 17  1  0  0  0
 17 18  1  0  0  0
 17 45  1  0  0  0
 17 46  1  0  0  0
 18 19  2  0  0  0
 18 20  1  0  0  0
 19 21  1  0  0  0
 19 47  1  0  0  0
 20 22  2  0  0  0
 20 48  1  0  0  0
 21 23  2  0  0  0
 22 23  1  0  0  0
 22 49  1  0  0  0
 50 51  1  0  0  0
M  CHG  1  50   1
M  END
> <LID>
L004437

> <PC_CID>
68616

> <Names>
3,4-Dichloro-N-methyl-N-(2-(1-pyrrolidinyl)-cyclohexyl)-benzeneacetamide, (trans)-Isomer

> <CAS_Numbers>
67197-96-0;67198-13-4

$$$$
15123216
                    3D
 Structure written by MMmdl.
 49 51  0  0  1  0            999 V2000
    5.3727   -0.2289    2.3595 Cl  0  0  0  0  0  0
    5.8555    2.4229    0.6552 Cl  0  0  0  0  0  0
   -3.5856    4.5874   -0.1878 O   0  0  0  0  0  0
   -0.0251    0.0026    0.9017 O   0  0  0  0  0  0
   -1.2157   -1.5912   -0.2024 N   0  0  0  0  0  0
   -2.5226   -1.4114    0.4851 C   0  0  2  0  0  0
   -2.8807   -0.0035    1.0338 C   0  0  0  0  0  0
   -2.6703   -2.5156    1.5511 C   0  0  0  0  0  0
   -2.7263    2.4460    0.6273 C   0  0  0  0  0  0
   -3.5261    1.0603   -1.1482 C   0  0  0  0  0  0
   -2.5675   -3.9119    0.9101 C   0  0  0  0  0  0
   -3.0189    3.3507   -0.5667 C   0  0  1  0  0  0
   -1.2200   -2.8509   -0.9697 C   0  0  0  0  0  0
   -3.9770    2.5055   -1.4022 C   0  0  0  0  0  0
   -1.3273   -4.0375    0.0076 C   0  0  0  0  0  0
   -0.0691   -0.9104    0.0768 C   0  0  0  0  0  0
    1.2243   -1.2766   -0.6799 C   0  0  0  0  0  0
    2.3873   -0.3545   -0.3417 C   0  0  0  0  0  0
    3.2551   -0.6687    0.7256 C   0  0  0  0  0  0
    2.6056    0.8186   -1.0942 C   0  0  0  0  0  0
    4.3313    0.1833    1.0439 C   0  0  0  0  0  0
    3.6807    1.6712   -0.7784 C   0  0  0  0  0  0
    4.5450    1.3579    0.2892 C   0  0  0  0  0  0
   -3.2896   -1.6088   -0.2655 H   0  0  0  0  0  0
   -3.9244    0.0132    1.3517 H   0  0  0  0  0  0
   -2.3008    0.2009    1.9346 H   0  0  0  0  0  0
   -1.8969   -2.3994    2.3118 H   0  0  0  0  0  0
   -3.6273   -2.4226    2.0656 H   0  0  0  0  0  0
   -1.8042    2.7141    1.1443 H   0  0  0  0  0  0
   -3.5459    2.4950    1.3470 H   0  0  0  0  0  0
   -4.3930    0.4113   -1.0159 H   0  0  0  0  0  0
   -2.9485    0.6737   -1.9886 H   0  0  0  0  0  0
   -2.5528   -4.6822    1.6818 H   0  0  0  0  0  0
   -3.4610   -4.0947    0.3117 H   0  0  0  0  0  0
   -2.0998    3.5301   -1.1268 H   0  0  0  0  0  0
   -2.0734   -2.8575   -1.6493 H   0  0  0  0  0  0
   -0.3582   -2.9870   -1.6203 H   0  0  0  0  0  0
   -4.9999    2.6296   -1.0425 H   0  0  0  0  0  0
   -3.9634    2.7741   -2.4590 H   0  0  0  0  0  0
   -0.4300   -4.0790    0.6265 H   0  0  0  0  0  0
   -1.3636   -4.9769   -0.5448 H   0  0  0  0  0  0
    1.5090   -2.3023   -0.4413 H   0  0  0  0  0  0
    1.0460   -1.2277   -1.7548 H   0  0  0  0  0  0
   -4.3969    4.4285    0.2707 H   0  0  0  0  0  0
    3.0937   -1.5648    1.3070 H   0  0  0  0  0  0
    1.9480    1.0695   -1.9137 H   0  0  0  0  0  0
    3.8419    2.5688   -1.3573 H   0  0  0  0  0  0
   -2.6565    1.0874    0.0536 N   0  3  2  0  0  0
   -1.7069    0.9853   -0.2773 H   0  0  0  0  0  0
  1 21  1  0  0  0
  2 23  1  0  0  0
  3 12  1  0  0  0
  3 44  1  0  0  0
  4 16  2  0  0  0
  5  6  1  0  0  0
  5 13  1  0  0  0
  5 16  1  0  0  0
  6  7  1  0  0  0
  6  8  1  0  0  0
  6 24  1  0  0  0
  7 25  1  0  0  0
  7 26  1  0  0  0
  7 48  1  0  0  0
  8 11  1  0  0  0
  8 27  1  0  0  0
  8 28  1  0  0  0
  9 12  1  0  0  0
  9 29  1  0  0  0
  9 30  1  0  0  0
  9 48  1  0  0  0
 10 14  1  0  0  0
 10 31  1  0  0  0
 10 32  1  0  0  0
 10 48  1  0  0  0
 11 15  1  0  0  0
 11 33  1  0  0  0
 11 34  1  0  0  0
 12 14  1  0  0  0
 12 35  1  0  0  0
 13 15  1  0  0  0
 13 36  1  0  0  0
 13 37  1  0  0  0
 14 38  1  0  0  0
 14 39  1  0  0  0
 15 40  1  0  0  0
 15 41  1  0  0  0
 16 17  1  0  0  0
 17 18  1  0  0  0
 17 42  1  0  0  0
 17 43  1  0  0  0
 18 19  2  0  0  0
 18 20  1  0  0  0
 19 21  1  0  0  0
 19 45  1  0  0  0
 20 22  2  0  0  0
 20 46  1  0  0  0
 21 23  2  0  0  0
 22 23  1  0  0  0
 22 47  1  0  0  0
 48 49  1  0  0  0
M  CHG  1  48   1
M  END
> <LID>
L003137

> <PC_CID>
15123216

> <Names>


> <CAS_Numbers>


$$$$
44214653
                    3D
 Structure written by MMmdl.
 58 61  0  0  1  0            999 V2000
   -0.6781   -6.2711    1.4675 O   0  0  0  0  0  0
   -2.8582    0.4956    1.0423 O   0  0  0  0  0  0
    4.3036   -0.6207    0.1905 O   0  0  0  0  0  0
   -4.0593    3.2127   -2.3934 O   0  0  0  0  0  0
    6.5133   -1.3361   -1.0639 O   0  0  0  0  0  0
   -1.2815    0.2854   -0.5850 N   0  0  0  0  0  0
   -0.8345   -3.9819    0.6158 C   0  0  0  0  0  0
    0.5238   -4.3003   -1.3245 C   0  0  0  0  0  0
   -0.7491   -5.4826    0.2987 C   0  0  1  0  0  0
    0.5068   -5.6185   -0.5576 C   0  0  0  0  0  0
   -0.5164   -2.0670   -0.9753 C   0  0  0  0  0  0
   -0.6348   -0.8937    0.0328 C   0  0  1  0  0  0
    0.6636   -0.5203    0.7533 C   0  0  0  0  0  0
   -0.5857    0.8539   -1.7497 C   0  0  0  0  0  0
   -2.3929    0.8514   -0.0408 C   0  0  0  0  0  0
    1.9341   -0.7177    0.1644 C   0  0  0  0  0  0
    0.5902    0.0487    2.0419 C   0  0  0  0  0  0
   -3.0567    1.9578   -0.7932 C   0  0  0  0  0  0
    3.1179   -0.3750    0.8469 C   0  0  0  0  0  0
    1.7638    0.4020    2.7324 C   0  0  0  0  0  0
    3.0238    0.1904    2.1422 C   0  0  0  0  0  0
   -3.5173    3.1664   -0.1675 C   0  0  0  0  0  0
   -3.4288    2.0293   -2.1151 C   0  0  0  0  0  0
   -4.1245    3.9192   -1.2071 C   0  0  0  0  0  0
   -3.5103    3.7461    1.1243 C   0  0  0  0  0  0
   -4.6971    5.1859   -1.0035 C   0  0  0  0  0  0
   -4.0816    5.0171    1.3508 C   0  0  0  0  0  0
    5.5230   -0.3291    0.8647 C   0  0  0  0  0  0
   -4.6726    5.7371    0.2916 C   0  0  0  0  0  0
    6.7264   -0.7197    0.0042 C   0  0  0  0  0  0
   -1.8686   -3.6387    0.5585 H   0  0  0  0  0  0
   -0.4704   -3.7602    1.6201 H   0  0  0  0  0  0
    1.5126   -4.0520   -1.7117 H   0  0  0  0  0  0
   -0.1665   -4.3578   -2.1681 H   0  0  0  0  0  0
   -1.6209   -5.7809   -0.2858 H   0  0  0  0  0  0
    0.4868   -6.4919   -1.2103 H   0  0  0  0  0  0
    1.3955   -5.6863    0.0725 H   0  0  0  0  0  0
    0.1175   -1.7856   -1.8163 H   0  0  0  0  0  0
   -1.4935   -2.2971   -1.4033 H   0  0  0  0  0  0
   -1.2777   -1.2828    0.8231 H   0  0  0  0  0  0
   -0.6313   -7.1821    1.2185 H   0  0  0  0  0  0
    0.4506    0.5265   -1.8169 H   0  0  0  0  0  0
   -0.5536    1.9437   -1.7109 H   0  0  0  0  0  0
   -1.0783    0.5521   -2.6739 H   0  0  0  0  0  0
    2.0242   -1.1370   -0.8260 H   0  0  0  0  0  0
   -0.3703    0.2168    2.5073 H   0  0  0  0  0  0
    1.6978    0.8363    3.7191 H   0  0  0  0  0  0
    3.9027    0.4724    2.7016 H   0  0  0  0  0  0
   -3.3262    1.3516   -2.9498 H   0  0  0  0  0  0
   -3.0607    3.2092    1.9466 H   0  0  0  0  0  0
   -5.1485    5.7230   -1.8244 H   0  0  0  0  0  0
   -4.0655    5.4425    2.3438 H   0  0  0  0  0  0
   -5.1071    6.7092    0.4744 H   0  0  0  0  0  0
    5.5856    0.7371    1.0881 H   0  0  0  0  0  0
    5.5814   -0.8822    1.8034 H   0  0  0  0  0  0
    7.8530   -0.3963    0.4396 O   0  5  0  0  0  0
    0.0488   -3.2911   -0.3558 N   0  3  1  0  0  0
    0.8670   -3.0063    0.1651 H   0  0  0  0  0  0
  1  9  1  0  0  0
  1 41  1  0  0  0
  2 15  2  0  0  0
  3 19  1  0  0  0
  3 28  1  0  0  0
  4 23  1  0  0  0
  4 24  1  0  0  0
  5 30  2  0  0  0
  6 12  1  0  0  0
  6 14  1  0  0  0
  6 15  1  0  0  0
  7  9  1  0  0  0
  7 31  1  0  0  0
  7 32  1  0  0  0
  7 57  1  0  0  0
  8 10  1  0  0  0
  8 33  1  0  0  0
  8 34  1  0  0  0
  8 57  1  0  0  0
  9 10  1  0  0  0
  9 35  1  0  0  0
 10 36  1  0  0  0
 10 37  1  0  0  0
 11 12  1  0  0  0
 11 38  1  0  0  0
 11 39  1  0  0  0
 11 57  1  0  0  0
 12 13  1  0  0  0
 12 40  1  0  0  0
 13 16  2  0  0  0
 13 17  1  0  0  0
 14 42  1  0  0  0
 14 43  1  0  0  0
 14 44  1  0  0  0
 15 18  1  0  0  0
 16 19  1  0  0  0
 16 45  1  0  0  0
 17 20  2  0  0  0
 17 46  1  0  0  0
 18 22  1  0  0  0
 18 23  2  0  0  0
 19 21  2  0  0  0
 20 21  1  0  0  0
 20 47  1  0  0  0
 21 48  1  0  0  0
 22 24  1  0  0  0
 22 25  2  0  0  0
 23 49  1  0  0  0
 24 26  2  0  0  0
 25 27  1  0  0  0
 25 50  1  0  0  0
 26 29  1  0  0  0
 26 51  1  0  0  0
 27 29  2  0  0  0
 27 52  1  0  0  0
 28 30  1  0  0  0
 28 54  1  0  0  0
 28 55  1  0  0  0
 29 53  1  0  0  0
 30 56  1  0  0  0
 57 58  1  0  0  0
M  CHG  2  56  -1  57   1
M  END
> <LID>
L018325

> <PC_CID>
44214653

> <Names>


> <CAS_Numbers>


$$$$
14873783
                    3D
 Structure written by MMmdl.
 62 63  0  0  1  0            999 V2000
   -2.2050    0.4345    2.5379 O   0  0  0  0  0  0
   -1.4365    2.2351    1.3636 O   0  0  0  0  0  0
   -1.7118   -1.9236   -1.8141 O   0  0  0  0  0  0
    8.3610   -0.5296   -0.3424 O   0  0  0  0  0  0
    8.4674    1.6125   -1.1538 O   0  0  0  0  0  0
   -2.6690   -0.4161   -0.3784 N   0  0  0  0  0  0
   -1.3798    0.0332    0.2800 C   0  0  0  0  0  0
   -0.5724   -1.1740    0.8707 C   0  0  0  0  0  0
   -0.4630    0.7285   -0.7800 C   0  0  0  0  0  0
    0.8338   -0.7814    1.3641 C   0  0  0  0  0  0
    0.9630    1.0403   -0.2742 C   0  0  0  0  0  0
    3.0419    0.0580    0.6612 C   0  0  0  0  0  0
   -1.6619    1.0267    1.4560 C   0  0  0  0  0  0
    3.9858    0.1614   -0.5502 C   0  0  0  0  0  0
   -3.8868    0.2608   -0.0563 C   0  0  0  0  0  0
   -2.7131   -1.3669   -1.3650 C   0  0  0  0  0  0
    5.4578    0.2918   -0.1343 C   0  0  0  0  0  0
   -4.0487   -1.7747   -2.0223 C   0  0  0  0  0  0
   -4.1750    1.5139   -0.6418 C   0  0  0  0  0  0
   -4.8014   -0.3157    0.8536 C   0  0  0  0  0  0
    6.3970    0.3960   -1.3469 C   0  0  0  0  0  0
   -4.5559   -3.1204   -1.4858 C   0  0  0  0  0  0
   -2.5627    1.2197    3.6616 C   0  0  0  0  0  0
   -5.3700    2.1845   -0.3179 C   0  0  0  0  0  0
   -5.9953    0.3580    1.1749 C   0  0  0  0  0  0
   -6.2794    1.6071    0.5895 C   0  0  0  0  0  0
    7.8583    0.5650   -0.9362 C   0  0  0  0  0  0
    9.7085   -0.5283    0.0960 C   0  0  0  0  0  0
   -1.1249   -1.6574    1.6773 H   0  0  0  0  0  0
   -0.4138   -1.9652    0.1441 H   0  0  0  0  0  0
   -0.3481    0.1094   -1.6675 H   0  0  0  0  0  0
   -0.9300    1.6460   -1.1414 H   0  0  0  0  0  0
    0.7829   -0.0960    2.2115 H   0  0  0  0  0  0
    1.3377   -1.6792    1.7245 H   0  0  0  0  0  0
    1.5384    1.4432   -1.1067 H   0  0  0  0  0  0
    0.9520    1.8190    0.4887 H   0  0  0  0  0  0
    3.1131    0.9494    1.2866 H   0  0  0  0  0  0
    3.3808   -0.7762    1.2772 H   0  0  0  0  0  0
    3.8677   -0.7215   -1.1798 H   0  0  0  0  0  0
    3.7216    1.0197   -1.1674 H   0  0  0  0  0  0
    5.5785    1.1730    0.4979 H   0  0  0  0  0  0
    5.7381   -0.5677    0.4765 H   0  0  0  0  0  0
   -4.8303   -1.0199   -1.9541 H   0  0  0  0  0  0
   -3.8636   -1.8796   -3.0920 H   0  0  0  0  0  0
   -3.4801    1.9626   -1.3366 H   0  0  0  0  0  0
   -4.5850   -1.2704    1.3105 H   0  0  0  0  0  0
    6.3098   -0.4959   -1.9679 H   0  0  0  0  0  0
    6.1096    1.2437   -1.9698 H   0  0  0  0  0  0
   -5.4453   -3.4408   -2.0286 H   0  0  0  0  0  0
   -3.8045   -3.9036   -1.5941 H   0  0  0  0  0  0
   -4.8205   -3.0532   -0.4304 H   0  0  0  0  0  0
   -2.9817    0.5824    4.4403 H   0  0  0  0  0  0
   -1.6919    1.7323    4.0720 H   0  0  0  0  0  0
   -3.3127    1.9640    3.3910 H   0  0  0  0  0  0
   -5.5890    3.1429   -0.7651 H   0  0  0  0  0  0
   -6.6927   -0.0827    1.8719 H   0  0  0  0  0  0
   -7.1954    2.1231    0.8372 H   0  0  0  0  0  0
    9.9507   -1.4879    0.5525 H   0  0  0  0  0  0
   10.3897   -0.3675   -0.7406 H   0  0  0  0  0  0
    9.8754    0.2535    0.8380 H   0  0  0  0  0  0
    1.6284   -0.1734    0.2672 N   0  3  0  0  0  0
    1.6470   -0.8571   -0.4765 H   0  0  0  0  0  0
  1 13  1  0  0  0
  1 23  1  0  0  0
  2 13  2  0  0  0
  3 16  2  0  0  0
  4 27  1  0  0  0
  4 28  1  0  0  0
  5 27  2  0  0  0
  6  7  1  0  0  0
  6 15  1  0  0  0
  6 16  1  0  0  0
  7  8  1  0  0  0
  7  9  1  0  0  0
  7 13  1  0  0  0
  8 10  1  0  0  0
  8 29  1  0  0  0
  8 30  1  0  0  0
  9 11  1  0  0  0
  9 31  1  0  0  0
  9 32  1  0  0  0
 10 33  1  0  0  0
 10 34  1  0  0  0
 10 61  1  0  0  0
 11 35  1  0  0  0
 11 36  1  0  0  0
 11 61  1  0  0  0
 12 14  1  0  0  0
 12 37  1  0  0  0
 12 38  1  0  0  0
 12 61  1  0  0  0
 14 17  1  0  0  0
 14 39  1  0  0  0
 14 40  1  0  0  0
 15 19  2  0  0  0
 15 20  1  0  0  0
 16 18  1  0  0  0
 17 21  1  0  0  0
 17 41  1  0  0  0
 17 42  1  0  0  0
 18 22  1  0  0  0
 18 43  1  0  0  0
 18 44  1  0  0  0
 19 24  1  0  0  0
 19 45  1  0  0  0
 20 25  2  0  0  0
 20 46  1  0  0  0
 21 27  1  0  0  0
 21 47  1  0  0  0
 21 48  1  0  0  0
 22 49  1  0  0  0
 22 50  1  0  0  0
 22 51  1  0  0  0
 23 52  1  0  0  0
 23 53  1  0  0  0
 23 54  1  0  0  0
 24 26  2  0  0  0
 24 55  1  0  0  0
 25 26  1  0  0  0
 25 56  1  0  0  0
 26 57  1  0  0  0
 28 58  1  0  0  0
 28 59  1  0  0  0
 28 60  1  0  0  0
 61 62  1  0  0  0
M  CHG  1  61   1
M  END
> <LID>
L004289

> <PC_CID>
14873783

> <Names>


> <CAS_Numbers>


$$$$
19819697
                    3D
 Structure written by MMmdl.
 56 60  0  0  1  0            999 V2000
   -4.2363   -4.5910   -0.7212 O   0  0  0  0  0  0
   -2.2214    3.2887    1.7018 O   0  0  0  0  0  0
    0.8021   -0.8432   -0.7682 O   0  0  0  0  0  0
   -0.5612    0.9393   -1.1870 N   0  0  0  0  0  0
   -1.8431    0.4257   -0.6012 C   0  0  1  0  0  0
   -1.9231   -1.0876   -0.2551 C   0  0  0  0  0  0
   -3.3294   -2.8866    0.7389 C   0  0  0  0  0  0
   -4.2867   -1.5116   -0.9598 C   0  0  0  0  0  0
   -4.5937   -3.5844    0.2054 C   0  0  1  0  0  0
   -5.3735   -2.4829   -0.5119 C   0  0  0  0  0  0
   -2.2294    1.3403    0.5518 C   0  0  0  0  0  0
   -0.6972    2.3601   -1.6079 C   0  0  0  0  0  0
   -0.8925    3.2920   -0.3836 C   0  0  0  0  0  0
   -1.7842    2.6246    0.6025 C   0  0  0  0  0  0
    0.6528    0.3195   -1.1430 C   0  0  0  0  0  0
   -3.0351    1.1863    1.7190 C   0  0  0  0  0  0
    1.9127    1.1074   -1.5648 C   0  0  0  0  0  0
   -2.9923    2.3883    2.3740 C   0  0  0  0  0  0
    3.2136    0.3950   -1.1949 C   0  0  0  0  0  0
    3.7501    0.4238    0.1227 C   0  0  0  0  0  0
    3.9000   -0.3075   -2.2095 C   0  0  0  0  0  0
    4.9703   -0.2536    0.3932 C   0  0  0  0  0  0
    3.1024    1.1052    1.1825 C   0  0  0  0  0  0
    5.1057   -0.9756   -1.9323 C   0  0  0  0  0  0
    5.6410   -0.9479   -0.6332 C   0  0  0  0  0  0
    5.5216   -0.2391    1.6915 C   0  0  0  0  0  0
    3.6573    1.1150    2.4763 C   0  0  0  0  0  0
    4.8667    0.4446    2.7316 C   0  0  0  0  0  0
   -2.5917    0.5977   -1.3748 H   0  0  0  0  0  0
   -1.2614   -1.2992    0.5863 H   0  0  0  0  0  0
   -1.5877   -1.6950   -1.0973 H   0  0  0  0  0  0
   -2.4303   -3.4640    0.5146 H   0  0  0  0  0  0
   -3.3755   -2.7712    1.8223 H   0  0  0  0  0  0
   -3.8383   -1.8661   -1.8896 H   0  0  0  0  0  0
   -4.6767   -0.5079   -1.1312 H   0  0  0  0  0  0
   -5.1810   -4.0370    1.0052 H   0  0  0  0  0  0
   -6.0348   -1.9835    0.1976 H   0  0  0  0  0  0
   -5.9887   -2.8478   -1.3356 H   0  0  0  0  0  0
    0.0960    2.7282   -2.2569 H   0  0  0  0  0  0
   -1.5900    2.4270   -2.2314 H   0  0  0  0  0  0
    0.0707    3.4954    0.0851 H   0  0  0  0  0  0
   -1.3075    4.2519   -0.6918 H   0  0  0  0  0  0
   -3.5771    0.3168    2.0572 H   0  0  0  0  0  0
    1.8808    1.2584   -2.6445 H   0  0  0  0  0  0
    1.9253    2.1003   -1.1160 H   0  0  0  0  0  0
   -3.8004   -5.2919   -0.2598 H   0  0  0  0  0  0
   -3.4314    2.7569    3.2895 H   0  0  0  0  0  0
    3.5010   -0.3384   -3.2129 H   0  0  0  0  0  0
    2.1702    1.6265    1.0297 H   0  0  0  0  0  0
    5.6205   -1.5095   -2.7174 H   0  0  0  0  0  0
    6.5681   -1.4636   -0.4289 H   0  0  0  0  0  0
    6.4494   -0.7535    1.8959 H   0  0  0  0  0  0
    3.1523    1.6380    3.2751 H   0  0  0  0  0  0
    5.2911    0.4532    3.7248 H   0  0  0  0  0  0
   -3.2845   -1.5373    0.1259 N   0  3  2  0  0  0
   -3.6200   -0.9010    0.8343 H   0  0  0  0  0  0
  1  9  1  0  0  0
  1 46  1  0  0  0
  2 14  1  0  0  0
  2 18  1  0  0  0
  3 15  2  0  0  0
  4  5  1  0  0  0
  4 12  1  0  0  0
  4 15  1  0  0  0
  5  6  1  0  0  0
  5 11  1  0  0  0
  5 29  1  0  0  0
  6 30  1  0  0  0
  6 31  1  0  0  0
  6 55  1  0  0  0
  7  9  1  0  0  0
  7 32  1  0  0  0
  7 33  1  0  0  0
  7 55  1  0  0  0
  8 10  1  0  0  0
  8 34  1  0  0  0
  8 35  1  0  0  0
  8 55  1  0  0  0
  9 10  1  0  0  0
  9 36  1  0  0  0
 10 37  1  0  0  0
 10 38  1  0  0  0
 11 14  2  0  0  0
 11 16  1  0  0  0
 12 13  1  0  0  0
 12 39  1  0  0  0
 12 40  1  0  0  0
 13 14  1  0  0  0
 13 41  1  0  0  0
 13 42  1  0  0  0
 15 17  1  0  0  0
 16 18  2  0  0  0
 16 43  1  0  0  0
 17 19  1  0  0  0
 17 44  1  0  0  0
 17 45  1  0  0  0
 18 47  1  0  0  0
 19 20  1  0  0  0
 19 21  2  0  0  0
 20 22  1  0  0  0
 20 23  2  0  0  0
 21 24  1  0  0  0
 21 48  1  0  0  0
 22 25  1  0  0  0
 22 26  2  0  0  0
 23 27  1  0  0  0
 23 49  1  0  0  0
 24 25  2  0  0  0
 24 50  1  0  0  0
 25 51  1  0  0  0
 26 28  1  0  0  0
 26 52  1  0  0  0
 27 28  2  0  0  0
 27 53  1  0  0  0
 28 54  1  0  0  0
 55 56  1  0  0  0
M  CHG  1  55   1
M  END
> <LID>
L003822

> <PC_CID>
19819697

> <Names>


> <CAS_Numbers>


$$$$
44214917
                    3D
 Structure written by MMmdl.
 55 56  0  0  1  0            999 V2000
    7.0509    1.3694    1.0924 Cl  0  0  0  0  0  0
    7.6638   -1.7443    0.7771 Cl  0  0  0  0  0  0
    0.0867    1.2313   -2.9120 O   0  0  0  0  0  0
    2.5041    0.6407   -2.1501 O   0  0  0  0  0  0
   -4.3265    3.0705    2.7177 O   0  0  0  0  0  0
    0.3848    1.1258   -1.5316 N   0  0  0  0  0  0
   -0.8202    1.1592   -0.6891 C   0  0  2  0  0  0
   -1.6557   -0.1227   -0.9469 C   0  0  0  0  0  0
   -1.5646    2.5058   -0.9365 C   0  0  0  0  0  0
   -2.0067   -0.9023    0.3325 C   0  0  0  0  0  0
   -2.2699    2.8592    1.4371 C   0  0  0  0  0  0
   -2.8368   -2.1366    0.0381 C   0  0  0  0  0  0
    1.6452    0.7207   -1.2686 C   0  0  0  0  0  0
   -3.9553    2.1808   -0.2834 C   0  0  0  0  0  0
    1.9872    0.3358    0.1814 C   0  0  0  0  0  0
   -3.1615    3.7577    2.3129 C   0  0  0  0  0  0
   -2.2045   -3.3400   -0.3396 C   0  0  0  0  0  0
   -4.2436   -2.0872    0.1350 C   0  0  0  0  0  0
    3.4110   -0.1787    0.3322 C   0  0  0  0  0  0
   -2.9740   -4.4866   -0.6178 C   0  0  0  0  0  0
   -5.0123   -3.2342   -0.1433 C   0  0  0  0  0  0
   -4.3779   -4.4339   -0.5196 C   0  0  0  0  0  0
    4.4640    0.7174    0.6128 C   0  0  0  0  0  0
    3.6861   -1.5555    0.1952 C   0  0  0  0  0  0
    5.7841    0.2448    0.7519 C   0  0  0  0  0  0
    5.0044   -2.0301    0.3343 C   0  0  0  0  0  0
    6.0556   -1.1342    0.6121 C   0  0  0  0  0  0
   -0.4891    1.1546    0.3482 H   0  0  0  0  0  0
   -2.5604    0.1218   -1.5026 H   0  0  0  0  0  0
   -1.1081   -0.8061   -1.5984 H   0  0  0  0  0  0
   -0.8366    3.3161   -0.8726 H   0  0  0  0  0  0
   -1.9490    2.5486   -1.9565 H   0  0  0  0  0  0
   -1.0919   -1.2116    0.8393 H   0  0  0  0  0  0
   -2.5434   -0.2762    1.0426 H   0  0  0  0  0  0
   -2.2221    1.8479    1.8405 H   0  0  0  0  0  0
   -1.2560    3.2578    1.4972 H   0  0  0  0  0  0
   -3.9854    1.1684    0.1122 H   0  0  0  0  0  0
   -4.7836    2.7327    0.1594 H   0  0  0  0  0  0
   -4.1468    2.1357   -1.3559 H   0  0  0  0  0  0
    1.8489    1.2037    0.8273 H   0  0  0  0  0  0
    1.2956   -0.4339    0.5257 H   0  0  0  0  0  0
   -2.6196    4.0382    3.2168 H   0  0  0  0  0  0
   -3.4252    4.6834    1.8002 H   0  0  0  0  0  0
   -1.1281   -3.3866   -0.4187 H   0  0  0  0  0  0
   -4.7387   -1.1715    0.4227 H   0  0  0  0  0  0
    0.8754    0.9046   -3.3225 H   0  0  0  0  0  0
   -2.4872   -5.4064   -0.9069 H   0  0  0  0  0  0
   -6.0891   -3.1939   -0.0680 H   0  0  0  0  0  0
   -4.9677   -5.3133   -0.7329 H   0  0  0  0  0  0
    4.2613    1.7733    0.7179 H   0  0  0  0  0  0
    2.8879   -2.2507   -0.0205 H   0  0  0  0  0  0
   -4.8192    3.6259    3.3038 H   0  0  0  0  0  0
    5.2090   -3.0852    0.2264 H   0  0  0  0  0  0
   -2.6669    2.8564    0.0036 N   0  3  2  0  0  0
   -2.8511    3.8264   -0.2102 H   0  0  0  0  0  0
  1 25  1  0  0  0
  2 27  1  0  0  0
  3  6  1  0  0  0
  3 46  1  0  0  0
  4 13  2  0  0  0
  5 16  1  0  0  0
  5 52  1  0  0  0
  6  7  1  0  0  0
  6 13  1  0  0  0
  7  8  1  0  0  0
  7  9  1  0  0  0
  7 28  1  0  0  0
  8 10  1  0  0  0
  8 29  1  0  0  0
  8 30  1  0  0  0
  9 31  1  0  0  0
  9 32  1  0  0  0
  9 54  1  0  0  0
 10 12  1  0  0  0
 10 33  1  0  0  0
 10 34  1  0  0  0
 11 16  1  0  0  0
 11 35  1  0  0  0
 11 36  1  0  0  0
 11 54  1  0  0  0
 12 17  2  0  0  0
 12 18  1  0  0  0
 13 15  1  0  0  0
 14 37  1  0  0  0
 14 38  1  0  0  0
 14 39  1  0  0  0
 14 54  1  0  0  0
 15 19  1  0  0  0
 15 40  1  0  0  0
 15 41  1  0  0  0
 16 42  1  0  0  0
 16 43  1  0  0  0
 17 20  1  0  0  0
 17 44  1  0  0  0
 18 21  2  0  0  0
 18 45  1  0  0  0
 19 23  2  0  0  0
 19 24  1  0  0  0
 20 22  2  0  0  0
 20 47  1  0  0  0
 21 22  1  0  0  0
 21 48  1  0  0  0
 22 49  1  0  0  0
 23 25  1  0  0  0
 23 50  1  0  0  0
 24 26  2  0  0  0
 24 51  1  0  0  0
 25 27  2  0  0  0
 26 27  1  0  0  0
 26 53  1  0  0  0
 54 55  1  0  0  0
M  CHG  1  54   1
M  END
> <LID>
L019025

> <PC_CID>
44214917

> <Names>


> <CAS_Numbers>


$$$$
